gem5 Simulator System.  http://gem5.org
gem5 is copyrighted software; use the --copyright option for details.

gem5 compiled May  2 2018 08:29:23
gem5 started May  2 2018 08:29:52
gem5 executing on ubuntu, pid 86767
command line: ../build/ARM/gem5.opt --debug-flag=SimpleCallReturn --outdir=../Output/atomic/hello ../configs/example/se.py --cmd=../tests/test-progs/hello/bin/arm/linux/hello --cpu-type=AtomicSimpleCPU

Global frequency set at 1000000000000 ticks per second
**** REAL SIMULATION ****
      0: system.cpu: Post execute machcode = e59fc024 pc = 8150 disem=ldr opclass=32
    500: system.cpu: Post execute machcode = e3a0b000 pc = 8154 disem=mov opclass=1
   1000: system.cpu: Post execute machcode = e49d1004 pc = 8158 disem=ldr opclass=32
   1500: system.cpu: Post execute machcode = e49d1004 pc = 8158 disem=addi_uop opclass=1
   2000: system.cpu: Post execute machcode = e1a0200d pc = 815c disem=mov opclass=1
   2500: system.cpu: Post execute machcode = 1e52d2004 pc = 8160 disem=str opclass=33
   3000: system.cpu: Post execute machcode = 1e52d2004 pc = 8160 disem=subi_uop opclass=1
   3500: system.cpu: Post execute machcode = 1e52d0004 pc = 8164 disem=str opclass=33
   4000: system.cpu: Post execute machcode = 1e52d0004 pc = 8164 disem=subi_uop opclass=1
   4500: system.cpu: Post execute machcode = e59f0010 pc = 8168 disem=ldr opclass=32
   5000: system.cpu: Post execute machcode = e59f3010 pc = 816c disem=ldr opclass=32
   5500: system.cpu: Post execute machcode = 1e52dc004 pc = 8170 disem=str opclass=33
   6000: system.cpu: Post execute machcode = 1e52dc004 pc = 8170 disem=subi_uop opclass=1
   6500: system.cpu: Post execute machcode = 1eb00003c pc = 8174 disem=bl opclass=1
   6500: system.cpu: Post execute a function CALL machcode = 1eb00003c pc = 8174 currentCallNum is 1
   7000: system.cpu: Post execute machcode = 2e59fc298 pc = 826c disem=ldr opclass=32
   7500: system.cpu: Post execute machcode = 3e92d41f0 pc = 8270 disem=str_uop opclass=33
   8000: system.cpu: Post execute machcode = 3e92d41f0 pc = 8270 disem=str_uop opclass=33
   8500: system.cpu: Post execute machcode = 3e92d41f0 pc = 8270 disem=str_uop opclass=33
   9000: system.cpu: Post execute machcode = 3e92d41f0 pc = 8270 disem=str_uop opclass=33
   9500: system.cpu: Post execute machcode = 3e92d41f0 pc = 8270 disem=str_uop opclass=33
  10000: system.cpu: Post execute machcode = 3e92d41f0 pc = 8270 disem=str_uop opclass=33
  10500: system.cpu: Post execute machcode = 3e92d41f0 pc = 8270 disem=subi_uop opclass=1
  11000: system.cpu: Post execute machcode = e35c0000 pc = 8274 disem=cmps opclass=1
  11500: system.cpu: Post execute machcode = e24dde13 pc = 8278 disem=sub opclass=1
  12000: system.cpu: Post execute machcode = e1a06003 pc = 827c disem=mov opclass=1
  12500: system.cpu: Post execute machcode = e58d2004 pc = 8280 disem=str opclass=33
  13000: system.cpu: Post execute machcode = e58d000c pc = 8284 disem=str opclass=33
  13500: system.cpu: Post execute machcode = e58d1008 pc = 8288 disem=str opclass=33
  14000: system.cpu: Post execute machcode = e59d8148 pc = 828c disem=ldr opclass=32
  14500: system.cpu: Post execute machcode = e59d714c pc = 8290 disem=ldr opclass=32
  15000: system.cpu: Post execute machcode = 1a0200c pc = 8294 disem=mov opclass=1
  15500: system.cpu: Post execute machcode = 1a00007d pc = 8298 disem=b opclass=1
  16000: system.cpu: Post execute machcode = e59d3008 pc = 829c disem=ldr opclass=32
  16500: system.cpu: Post execute machcode = e59f0268 pc = 82a0 disem=ldr opclass=32
  17000: system.cpu: Post execute machcode = e2831001 pc = 82a4 disem=add opclass=1
  17500: system.cpu: Post execute machcode = e59d3004 pc = 82a8 disem=ldr opclass=32
  18000: system.cpu: Post execute machcode = e1a01101 pc = 82ac disem=mov opclass=1
  18500: system.cpu: Post execute machcode = e0831001 pc = 82b0 disem=add opclass=1
  19000: system.cpu: Post execute machcode = e59f3258 pc = 82b4 disem=ldr opclass=32
  19500: system.cpu: Post execute machcode = e1a0c001 pc = 82b8 disem=mov opclass=1
  20000: system.cpu: Post execute machcode = e5832000 pc = 82bc disem=str opclass=33
  20500: system.cpu: Post execute machcode = e59d3150 pc = 82c0 disem=ldr opclass=32
  21000: system.cpu: Post execute machcode = e59f224c pc = 82c4 disem=ldr opclass=32
  21500: system.cpu: Post execute machcode = e5803000 pc = 82c8 disem=str opclass=33
  22000: system.cpu: Post execute machcode = e5821000 pc = 82cc disem=str opclass=33
  22500: system.cpu: Post execute machcode = e49c3004 pc = 82d0 disem=ldr opclass=32
  23000: system.cpu: Post execute machcode = e49c3004 pc = 82d0 disem=addi_uop opclass=1
  23500: system.cpu: Post execute machcode = e3530000 pc = 82d4 disem=cmps opclass=1
  24000: system.cpu: Post execute machcode = 21afffffc pc = 82d8 disem=b opclass=1
  24500: system.cpu: Post execute machcode = e1a0000c pc = 82dc disem=mov opclass=1
  25000: system.cpu: Post execute machcode = 1eb003043 pc = 82e0 disem=bl opclass=1
  25000: system.cpu: Post execute a function CALL machcode = 1eb003043 pc = 82e0 currentCallNum is 2
  25500: system.cpu: Post execute machcode = e5903000 pc = 143f4 disem=ldr opclass=32
  26000: system.cpu: Post execute machcode = 3e92d0ff0 pc = 143f8 disem=str_uop opclass=33
  26500: system.cpu: Post execute machcode = 3e92d0ff0 pc = 143f8 disem=str_uop opclass=33
  27000: system.cpu: Post execute machcode = 3e92d0ff0 pc = 143f8 disem=str_uop opclass=33
  27500: system.cpu: Post execute machcode = 3e92d0ff0 pc = 143f8 disem=str_uop opclass=33
  28000: system.cpu: Post execute machcode = 3e92d0ff0 pc = 143f8 disem=str_uop opclass=33
  28500: system.cpu: Post execute machcode = 3e92d0ff0 pc = 143f8 disem=str_uop opclass=33
  29000: system.cpu: Post execute machcode = 3e92d0ff0 pc = 143f8 disem=str_uop opclass=33
  29500: system.cpu: Post execute machcode = 3e92d0ff0 pc = 143f8 disem=str_uop opclass=33
  30000: system.cpu: Post execute machcode = 3e92d0ff0 pc = 143f8 disem=subi_uop opclass=1
  30500: system.cpu: Post execute machcode = e3530000 pc = 143fc disem=cmps opclass=1
  31000: system.cpu: Post execute machcode = e24dd008 pc = 14400 disem=sub opclass=1
  31500: system.cpu: Post execute machcode = a00005d pc = 14404 disem=b opclass=1
  32000: system.cpu: Post execute machcode = e59f126c pc = 14408 disem=ldr opclass=32
  32500: system.cpu: Post execute machcode = e59f426c pc = 1440c disem=ldr opclass=32
  33000: system.cpu: Post execute machcode = e3a02000 pc = 14410 disem=mov opclass=1
  33500: system.cpu: Post execute machcode = e5915000 pc = 14414 disem=ldr opclass=32
  34000: system.cpu: Post execute machcode = e59f1264 pc = 14418 disem=ldr opclass=32
  34500: system.cpu: Post execute machcode = e5946004 pc = 1441c disem=ldr opclass=32
  35000: system.cpu: Post execute machcode = e2800008 pc = 14420 disem=add opclass=1
  35500: system.cpu: Post execute machcode = e5911000 pc = 14424 disem=ldr opclass=32
  36000: system.cpu: Post execute machcode = e1a0c002 pc = 14428 disem=mov opclass=1
  36500: system.cpu: Post execute machcode = e58d1004 pc = 1442c disem=str opclass=33
  37000: system.cpu: Post execute machcode = e59f1250 pc = 14430 disem=ldr opclass=32
  37500: system.cpu: Post execute machcode = e591b000 pc = 14434 disem=ldr opclass=32
  38000: system.cpu: Post execute machcode = e5941000 pc = 14438 disem=ldr opclass=32
  38500: system.cpu: Post execute machcode = e58d1000 pc = 1443c disem=str opclass=33
  39000: system.cpu: Post execute machcode = e59f1244 pc = 14440 disem=ldr opclass=32
  39500: system.cpu: Post execute machcode = e5919000 pc = 14444 disem=ldr opclass=32
  40000: system.cpu: Post execute machcode = e59f1240 pc = 14448 disem=ldr opclass=32
  40500: system.cpu: Post execute machcode = e591a000 pc = 1444c disem=ldr opclass=32
  41000: system.cpu: Post execute machcode = e59f123c pc = 14450 disem=ldr opclass=32
  41500: system.cpu: Post execute machcode = e5918000 pc = 14454 disem=ldr opclass=32
  42000: system.cpu: Post execute machcode = e59f1238 pc = 14458 disem=ldr opclass=32
  42500: system.cpu: Post execute machcode = e5917000 pc = 1445c disem=ldr opclass=32
  43000: system.cpu: Post execute machcode = e1a01002 pc = 14460 disem=mov opclass=1
  43500: system.cpu: Post execute machcode = e2433003 pc = 14464 disem=sub opclass=1
  44000: system.cpu: Post execute machcode = e353001e pc = 14468 disem=cmps opclass=1
  44500: system.cpu: Post execute machcode = 979ff103 pc = 1446c disem=ldr opclass=32
  45000: system.cpu: Post execute machcode = e5103004 pc = 145b4 disem=ldr opclass=32
  45500: system.cpu: Post execute machcode = e3a06000 pc = 145b8 disem=mov opclass=1
  46000: system.cpu: Post execute machcode = e58d3000 pc = 145bc disem=str opclass=33
  46500: system.cpu: Post execute machcode = e4903008 pc = 145c0 disem=ldr opclass=32
  47000: system.cpu: Post execute machcode = e4903008 pc = 145c0 disem=addi_uop opclass=1
  47500: system.cpu: Post execute machcode = e3530000 pc = 145c4 disem=cmps opclass=1
  48000: system.cpu: Post execute machcode = 1affffa5 pc = 145c8 disem=b opclass=1
  48500: system.cpu: Post execute machcode = e2433003 pc = 14464 disem=sub opclass=1
  49000: system.cpu: Post execute machcode = e353001e pc = 14468 disem=cmps opclass=1
  49500: system.cpu: Post execute machcode = 979ff103 pc = 1446c disem=ldr opclass=32
  50000: system.cpu: Post execute machcode = e5108004 pc = 145a0 disem=ldr opclass=32
  50500: system.cpu: Post execute machcode = e4903008 pc = 145a4 disem=ldr opclass=32
  51000: system.cpu: Post execute machcode = e4903008 pc = 145a4 disem=addi_uop opclass=1
  51500: system.cpu: Post execute machcode = e3530000 pc = 145a8 disem=cmps opclass=1
  52000: system.cpu: Post execute machcode = 1affffac pc = 145ac disem=b opclass=1
  52500: system.cpu: Post execute machcode = e2433003 pc = 14464 disem=sub opclass=1
  53000: system.cpu: Post execute machcode = e353001e pc = 14468 disem=cmps opclass=1
  53500: system.cpu: Post execute machcode = 979ff103 pc = 1446c disem=ldr opclass=32
  54000: system.cpu: Post execute machcode = e5102004 pc = 144f0 disem=ldr opclass=32
  54500: system.cpu: Post execute machcode = e3a05001 pc = 144f4 disem=mov opclass=1
  55000: system.cpu: Post execute machcode = e58d2004 pc = 144f8 disem=str opclass=33
  55500: system.cpu: Post execute machcode = e3e02000 pc = 144fc disem=mvn opclass=1
  56000: system.cpu: Post execute machcode = e4903008 pc = 14500 disem=ldr opclass=32
  56500: system.cpu: Post execute machcode = e4903008 pc = 14500 disem=addi_uop opclass=1
  57000: system.cpu: Post execute machcode = e3530000 pc = 14504 disem=cmps opclass=1
  57500: system.cpu: Post execute machcode = 21affffd5 pc = 14508 disem=b opclass=1
  58000: system.cpu: Post execute machcode = e2433003 pc = 14464 disem=sub opclass=1
  58500: system.cpu: Post execute machcode = e353001e pc = 14468 disem=cmps opclass=1
  59000: system.cpu: Post execute machcode = 979ff103 pc = 1446c disem=ldr opclass=32
  59500: system.cpu: Post execute machcode = e4903008 pc = 14500 disem=ldr opclass=32
  60000: system.cpu: Post execute machcode = e4903008 pc = 14500 disem=addi_uop opclass=1
  60500: system.cpu: Post execute machcode = e3530000 pc = 14504 disem=cmps opclass=1
  61000: system.cpu: Post execute machcode = 21affffd5 pc = 14508 disem=b opclass=1
  61500: system.cpu: Post execute machcode = e2433003 pc = 14464 disem=sub opclass=1
  62000: system.cpu: Post execute machcode = e353001e pc = 14468 disem=cmps opclass=1
  62500: system.cpu: Post execute machcode = 979ff103 pc = 1446c disem=ldr opclass=32
  63000: system.cpu: Post execute machcode = e4903008 pc = 14500 disem=ldr opclass=32
  63500: system.cpu: Post execute machcode = e4903008 pc = 14500 disem=addi_uop opclass=1
  64000: system.cpu: Post execute machcode = e3530000 pc = 14504 disem=cmps opclass=1
  64500: system.cpu: Post execute machcode = 21affffd5 pc = 14508 disem=b opclass=1
  65000: system.cpu: Post execute machcode = e2433003 pc = 14464 disem=sub opclass=1
  65500: system.cpu: Post execute machcode = e353001e pc = 14468 disem=cmps opclass=1
  66000: system.cpu: Post execute machcode = 979ff103 pc = 1446c disem=ldr opclass=32
  66500: system.cpu: Post execute machcode = e4903008 pc = 14500 disem=ldr opclass=32
  67000: system.cpu: Post execute machcode = e4903008 pc = 14500 disem=addi_uop opclass=1
  67500: system.cpu: Post execute machcode = e3530000 pc = 14504 disem=cmps opclass=1
  68000: system.cpu: Post execute machcode = 21affffd5 pc = 14508 disem=b opclass=1
  68500: system.cpu: Post execute machcode = e2433003 pc = 14464 disem=sub opclass=1
  69000: system.cpu: Post execute machcode = e353001e pc = 14468 disem=cmps opclass=1
  69500: system.cpu: Post execute machcode = 979ff103 pc = 1446c disem=ldr opclass=32
  70000: system.cpu: Post execute machcode = e5107004 pc = 14640 disem=ldr opclass=32
  70500: system.cpu: Post execute machcode = e4903008 pc = 14644 disem=ldr opclass=32
  71000: system.cpu: Post execute machcode = e4903008 pc = 14644 disem=addi_uop opclass=1
  71500: system.cpu: Post execute machcode = e3530000 pc = 14648 disem=cmps opclass=1
  72000: system.cpu: Post execute machcode = 1affff84 pc = 1464c disem=b opclass=1
  72500: system.cpu: Post execute machcode = e2433003 pc = 14464 disem=sub opclass=1
  73000: system.cpu: Post execute machcode = e353001e pc = 14468 disem=cmps opclass=1
  73500: system.cpu: Post execute machcode = 979ff103 pc = 1446c disem=ldr opclass=32
  74000: system.cpu: Post execute machcode = e510a004 pc = 14668 disem=ldr opclass=32
  74500: system.cpu: Post execute machcode = e4903008 pc = 1466c disem=ldr opclass=32
  75000: system.cpu: Post execute machcode = e4903008 pc = 1466c disem=addi_uop opclass=1
  75500: system.cpu: Post execute machcode = e3530000 pc = 14670 disem=cmps opclass=1
  76000: system.cpu: Post execute machcode = 1affff7a pc = 14674 disem=b opclass=1
  76500: system.cpu: Post execute machcode = e2433003 pc = 14464 disem=sub opclass=1
  77000: system.cpu: Post execute machcode = e353001e pc = 14468 disem=cmps opclass=1
  77500: system.cpu: Post execute machcode = 979ff103 pc = 1446c disem=ldr opclass=32
  78000: system.cpu: Post execute machcode = e4903008 pc = 14500 disem=ldr opclass=32
  78500: system.cpu: Post execute machcode = e4903008 pc = 14500 disem=addi_uop opclass=1
  79000: system.cpu: Post execute machcode = e3530000 pc = 14504 disem=cmps opclass=1
  79500: system.cpu: Post execute machcode = 21affffd5 pc = 14508 disem=b opclass=1
  80000: system.cpu: Post execute machcode = e2433003 pc = 14464 disem=sub opclass=1
  80500: system.cpu: Post execute machcode = e353001e pc = 14468 disem=cmps opclass=1
  81000: system.cpu: Post execute machcode = 979ff103 pc = 1446c disem=ldr opclass=32
  81500: system.cpu: Post execute machcode = e5109004 pc = 14654 disem=ldr opclass=32
  82000: system.cpu: Post execute machcode = e4903008 pc = 14658 disem=ldr opclass=32
  82500: system.cpu: Post execute machcode = e4903008 pc = 14658 disem=addi_uop opclass=1
  83000: system.cpu: Post execute machcode = e3530000 pc = 1465c disem=cmps opclass=1
  83500: system.cpu: Post execute machcode = 1affff7f pc = 14660 disem=b opclass=1
  84000: system.cpu: Post execute machcode = e2433003 pc = 14464 disem=sub opclass=1
  84500: system.cpu: Post execute machcode = e353001e pc = 14468 disem=cmps opclass=1
  85000: system.cpu: Post execute machcode = 979ff103 pc = 1446c disem=ldr opclass=32
  85500: system.cpu: Post execute machcode = e4903008 pc = 14500 disem=ldr opclass=32
  86000: system.cpu: Post execute machcode = e4903008 pc = 14500 disem=addi_uop opclass=1
  86500: system.cpu: Post execute machcode = e3530000 pc = 14504 disem=cmps opclass=1
  87000: system.cpu: Post execute machcode = 21affffd5 pc = 14508 disem=b opclass=1
  87500: system.cpu: Post execute machcode = e2433003 pc = 14464 disem=sub opclass=1
  88000: system.cpu: Post execute machcode = e353001e pc = 14468 disem=cmps opclass=1
  88500: system.cpu: Post execute machcode = 979ff103 pc = 1446c disem=ldr opclass=32
  89000: system.cpu: Post execute machcode = e4903008 pc = 14500 disem=ldr opclass=32
  89500: system.cpu: Post execute machcode = e4903008 pc = 14500 disem=addi_uop opclass=1
  90000: system.cpu: Post execute machcode = e3530000 pc = 14504 disem=cmps opclass=1
  90500: system.cpu: Post execute machcode = 21affffd5 pc = 14508 disem=b opclass=1
  91000: system.cpu: Post execute machcode = e2433003 pc = 14464 disem=sub opclass=1
  91500: system.cpu: Post execute machcode = e353001e pc = 14468 disem=cmps opclass=1
  92000: system.cpu: Post execute machcode = 979ff103 pc = 1446c disem=ldr opclass=32
  92500: system.cpu: Post execute machcode = e4903008 pc = 14500 disem=ldr opclass=32
  93000: system.cpu: Post execute machcode = e4903008 pc = 14500 disem=addi_uop opclass=1
  93500: system.cpu: Post execute machcode = e3530000 pc = 14504 disem=cmps opclass=1
  94000: system.cpu: Post execute machcode = 21affffd5 pc = 14508 disem=b opclass=1
  94500: system.cpu: Post execute machcode = e2433003 pc = 14464 disem=sub opclass=1
  95000: system.cpu: Post execute machcode = e353001e pc = 14468 disem=cmps opclass=1
  95500: system.cpu: Post execute machcode = 979ff103 pc = 1446c disem=ldr opclass=32
  96000: system.cpu: Post execute machcode = e5103004 pc = 14624 disem=ldr opclass=32
  96500: system.cpu: Post execute machcode = e3822001 pc = 14628 disem=orr opclass=1
  97000: system.cpu: Post execute machcode = e02cc003 pc = 1462c disem=eor opclass=1
  97500: system.cpu: Post execute machcode = e4903008 pc = 14630 disem=ldr opclass=32
  98000: system.cpu: Post execute machcode = e4903008 pc = 14630 disem=addi_uop opclass=1
  98500: system.cpu: Post execute machcode = e3530000 pc = 14634 disem=cmps opclass=1
  99000: system.cpu: Post execute machcode = 1affff89 pc = 14638 disem=b opclass=1
  99500: system.cpu: Post execute machcode = e2433003 pc = 14464 disem=sub opclass=1
 100000: system.cpu: Post execute machcode = e353001e pc = 14468 disem=cmps opclass=1
 100500: system.cpu: Post execute machcode = 979ff103 pc = 1446c disem=ldr opclass=32
 101000: system.cpu: Post execute machcode = e5103004 pc = 14608 disem=ldr opclass=32
 101500: system.cpu: Post execute machcode = e3822002 pc = 1460c disem=orr opclass=1
 102000: system.cpu: Post execute machcode = e02cc003 pc = 14610 disem=eor opclass=1
 102500: system.cpu: Post execute machcode = e4903008 pc = 14614 disem=ldr opclass=32
 103000: system.cpu: Post execute machcode = e4903008 pc = 14614 disem=addi_uop opclass=1
 103500: system.cpu: Post execute machcode = e3530000 pc = 14618 disem=cmps opclass=1
 104000: system.cpu: Post execute machcode = 21affff90 pc = 1461c disem=b opclass=1
 104500: system.cpu: Post execute machcode = e2433003 pc = 14464 disem=sub opclass=1
 105000: system.cpu: Post execute machcode = e353001e pc = 14468 disem=cmps opclass=1
 105500: system.cpu: Post execute machcode = 979ff103 pc = 1446c disem=ldr opclass=32
 106000: system.cpu: Post execute machcode = e5103004 pc = 145ec disem=ldr opclass=32
 106500: system.cpu: Post execute machcode = e3822004 pc = 145f0 disem=orr opclass=1
 107000: system.cpu: Post execute machcode = e0211003 pc = 145f4 disem=eor opclass=1
 107500: system.cpu: Post execute machcode = e4903008 pc = 145f8 disem=ldr opclass=32
 108000: system.cpu: Post execute machcode = e4903008 pc = 145f8 disem=addi_uop opclass=1
 108500: system.cpu: Post execute machcode = e3530000 pc = 145fc disem=cmps opclass=1
 109000: system.cpu: Post execute machcode = 21affff97 pc = 14600 disem=b opclass=1
 109500: system.cpu: Post execute machcode = e2433003 pc = 14464 disem=sub opclass=1
 110000: system.cpu: Post execute machcode = e353001e pc = 14468 disem=cmps opclass=1
 110500: system.cpu: Post execute machcode = 979ff103 pc = 1446c disem=ldr opclass=32
 111000: system.cpu: Post execute machcode = e5103004 pc = 145d0 disem=ldr opclass=32
 111500: system.cpu: Post execute machcode = e3822008 pc = 145d4 disem=orr opclass=1
 112000: system.cpu: Post execute machcode = e0211003 pc = 145d8 disem=eor opclass=1
 112500: system.cpu: Post execute machcode = e4903008 pc = 145dc disem=ldr opclass=32
 113000: system.cpu: Post execute machcode = e4903008 pc = 145dc disem=addi_uop opclass=1
 113500: system.cpu: Post execute machcode = e3530000 pc = 145e0 disem=cmps opclass=1
 114000: system.cpu: Post execute machcode = 21affff9e pc = 145e4 disem=b opclass=1
 114500: system.cpu: Post execute machcode = eaffffc7 pc = 145e8 disem=b opclass=1
 115000: system.cpu: Post execute machcode = e59f3168 pc = 1450c disem=ldr opclass=32
 115500: system.cpu: Post execute machcode = e352000f pc = 14510 disem=cmps opclass=1
 116000: system.cpu: Post execute machcode = e59f2168 pc = 14514 disem=ldr opclass=32
 116500: system.cpu: Post execute machcode = e5835000 pc = 14518 disem=str opclass=33
 117000: system.cpu: Post execute machcode = e59d3004 pc = 1451c disem=ldr opclass=32
 117500: system.cpu: Post execute machcode = e5846004 pc = 14520 disem=str opclass=33
 118000: system.cpu: Post execute machcode = e5823000 pc = 14524 disem=str opclass=33
 118500: system.cpu: Post execute machcode = e59f2158 pc = 14528 disem=ldr opclass=32
 119000: system.cpu: Post execute machcode = e59f3158 pc = 1452c disem=ldr opclass=32
 119500: system.cpu: Post execute machcode = e582b000 pc = 14530 disem=str opclass=33
 120000: system.cpu: Post execute machcode = e5839000 pc = 14534 disem=str opclass=33
 120500: system.cpu: Post execute machcode = e59f2150 pc = 14538 disem=ldr opclass=32
 121000: system.cpu: Post execute machcode = e59f3150 pc = 1453c disem=ldr opclass=32
 121500: system.cpu: Post execute machcode = e582a000 pc = 14540 disem=str opclass=33
 122000: system.cpu: Post execute machcode = e5838000 pc = 14544 disem=str opclass=33
 122500: system.cpu: Post execute machcode = e59f2148 pc = 14548 disem=ldr opclass=32
 123000: system.cpu: Post execute machcode = e59d3000 pc = 1454c disem=ldr opclass=32
 123500: system.cpu: Post execute machcode = e5827000 pc = 14550 disem=str opclass=33
 124000: system.cpu: Post execute machcode = e5843000 pc = 14554 disem=str opclass=33
 124500: system.cpu: Post execute machcode = 1a000008 pc = 14558 disem=b opclass=1
 125000: system.cpu: Post execute machcode = e28dd008 pc = 14580 disem=add opclass=1
 125500: system.cpu: Post execute machcode = 2e8bd0ff0 pc = 14584 disem=ldr2_uop opclass=32
 125500: system.cpu: ##Encounter an ldm, disem=ldr2_uop opclass=32, src_num=5, dest_num=2
 125500: system.cpu: ### Destregs: 
 125500: system.cpu: 	 4 
 125500: system.cpu: 	 5 
 126000: system.cpu: Post execute machcode = 2e8bd0ff0 pc = 14584 disem=ldr2_uop opclass=32
 126000: system.cpu: ##Encounter an ldm, disem=ldr2_uop opclass=32, src_num=5, dest_num=2
 126000: system.cpu: ### Destregs: 
 126000: system.cpu: 	 6 
 126000: system.cpu: 	 7 
 126500: system.cpu: Post execute machcode = 2e8bd0ff0 pc = 14584 disem=ldr2_uop opclass=32
 126500: system.cpu: ##Encounter an ldm, disem=ldr2_uop opclass=32, src_num=5, dest_num=2
 126500: system.cpu: ### Destregs: 
 126500: system.cpu: 	 8 
 126500: system.cpu: 	 9 
 127000: system.cpu: Post execute machcode = 2e8bd0ff0 pc = 14584 disem=ldr2_uop opclass=32
 127000: system.cpu: ##Encounter an ldm, disem=ldr2_uop opclass=32, src_num=5, dest_num=2
 127000: system.cpu: ### Destregs: 
 127000: system.cpu: 	 10 
 127000: system.cpu: 	 11 
 127500: system.cpu: Post execute machcode = 2e8bd0ff0 pc = 14584 disem=addi_uop opclass=1
 128000: system.cpu: Post execute machcode = 1e12fff1e pc = 14588 disem=bx opclass=1
 128000: system.cpu: Post execute a function RETURN machcode = 1e12fff1e pc = 14588 currentRetnNum is 1
 128500: system.cpu: Post execute machcode = e59f3228 pc = 82e4 disem=ldr opclass=32
 129000: system.cpu: Post execute machcode = e5932000 pc = 82e8 disem=ldr opclass=32
 129500: system.cpu: Post execute machcode = e3520000 pc = 82ec disem=cmps opclass=1
 130000: system.cpu: Post execute machcode = 1a00000c pc = 82f0 disem=b opclass=1
 130500: system.cpu: Post execute machcode = 3eb0032d8 pc = 82f4 disem=bl opclass=1
 130500: system.cpu: Post execute a function CALL machcode = 3eb0032d8 pc = 82f4 currentCallNum is 3
 131000: system.cpu: Post execute machcode = 1e92d4070 pc = 14e5c disem=str_uop opclass=33
 131500: system.cpu: Post execute machcode = 1e92d4070 pc = 14e5c disem=str_uop opclass=33
 132000: system.cpu: Post execute machcode = 1e92d4070 pc = 14e5c disem=str_uop opclass=33
 132500: system.cpu: Post execute machcode = 1e92d4070 pc = 14e5c disem=str_uop opclass=33
 133000: system.cpu: Post execute machcode = 1e92d4070 pc = 14e5c disem=subi_uop opclass=1
 133500: system.cpu: Post execute machcode = e24ddf72 pc = 14e60 disem=sub opclass=1
 134000: system.cpu: Post execute machcode = e28d0004 pc = 14e64 disem=add opclass=1
 134500: system.cpu: Post execute machcode = e2400002 pc = 14e68 disem=sub opclass=1
 135000: system.cpu: Post execute machcode = 3eb0074fb pc = 14e6c disem=bl opclass=1
 135000: system.cpu: Post execute a function CALL machcode = 3eb0074fb pc = 14e6c currentCallNum is 4
 135500: system.cpu: Post execute machcode = e1a0c007 pc = 32260 disem=mov opclass=1
 136000: system.cpu: Post execute machcode = e3a0707a pc = 32264 disem=mov opclass=1
 136500: system.cpu: Post execute machcode = 1ef000000 pc = 32268 disem=svc opclass=1
 137000: system.cpu: Post execute machcode = e1a0700c pc = 3226c disem=mov opclass=1
 137500: system.cpu: Post execute machcode = e3700a01 pc = 32270 disem=cmns opclass=1
 138000: system.cpu: Post execute machcode = 1312fff1e pc = 32274 disem=bx opclass=1
 138000: system.cpu: Post execute a function RETURN machcode = 1312fff1e pc = 32274 currentRetnNum is 2
 138500: system.cpu: Post execute machcode = e3500000 pc = 14e70 disem=cmps opclass=1
 139000: system.cpu: Post execute machcode = 28d1084 pc = 14e74 disem=add opclass=1
 139500: system.cpu: Post execute machcode = 1a00001e pc = 14e78 disem=b opclass=1
 140000: system.cpu: Post execute machcode = e3a00000 pc = 14e7c disem=mov opclass=1
 140500: system.cpu: Post execute machcode = e1a0c001 pc = 14e80 disem=mov opclass=1
 141000: system.cpu: Post execute machcode = e1a0e000 pc = 14e84 disem=mov opclass=1
 141500: system.cpu: Post execute machcode = e5dc3000 pc = 14e88 disem=ldrb opclass=32
 142000: system.cpu: Post execute machcode = e2433030 pc = 14e8c disem=sub opclass=1
 142500: system.cpu: Post execute machcode = 2e20320ff pc = 14e90 disem=and opclass=1
 143000: system.cpu: Post execute machcode = e3520009 pc = 14e94 disem=cmps opclass=1
 143500: system.cpu: Post execute machcode = 8a00001e pc = 14e98 disem=b opclass=1
 144000: system.cpu: Post execute machcode = e5dc1001 pc = 14e9c disem=ldrb opclass=32
 144500: system.cpu: Post execute machcode = e1a02003 pc = 14ea0 disem=mov opclass=1
 145000: system.cpu: Post execute machcode = e2413030 pc = 14ea4 disem=sub opclass=1
 145500: system.cpu: Post execute machcode = e3530009 pc = 14ea8 disem=cmps opclass=1
 146000: system.cpu: Post execute machcode = e28cc001 pc = 14eac disem=add opclass=1
 146500: system.cpu: Post execute machcode = 8a000008 pc = 14eb0 disem=b opclass=1
 147000: system.cpu: Post execute machcode = e351002e pc = 14ed8 disem=cmps opclass=1
 147500: system.cpu: Post execute machcode = e1820400 pc = 14edc disem=orr opclass=1
 148000: system.cpu: Post execute machcode = e28ee001 pc = 14ee0 disem=add opclass=1
 148500: system.cpu: Post execute machcode = 1a00000b pc = 14ee4 disem=b opclass=1
 149000: system.cpu: Post execute machcode = e35e0003 pc = 14ee8 disem=cmps opclass=1
 149500: system.cpu: Post execute machcode = a000007 pc = 14eec disem=b opclass=1
 150000: system.cpu: Post execute machcode = e28cc001 pc = 14ef0 disem=add opclass=1
 150500: system.cpu: Post execute machcode = eaffffe3 pc = 14ef4 disem=b opclass=1
 151000: system.cpu: Post execute machcode = e5dc3000 pc = 14e88 disem=ldrb opclass=32
 151500: system.cpu: Post execute machcode = e2433030 pc = 14e8c disem=sub opclass=1
 152000: system.cpu: Post execute machcode = 2e20320ff pc = 14e90 disem=and opclass=1
 152500: system.cpu: Post execute machcode = e3520009 pc = 14e94 disem=cmps opclass=1
 153000: system.cpu: Post execute machcode = 8a00001e pc = 14e98 disem=b opclass=1
 153500: system.cpu: Post execute machcode = e5dc1001 pc = 14e9c disem=ldrb opclass=32
 154000: system.cpu: Post execute machcode = e1a02003 pc = 14ea0 disem=mov opclass=1
 154500: system.cpu: Post execute machcode = e2413030 pc = 14ea4 disem=sub opclass=1
 155000: system.cpu: Post execute machcode = e3530009 pc = 14ea8 disem=cmps opclass=1
 155500: system.cpu: Post execute machcode = e28cc001 pc = 14eac disem=add opclass=1
 156000: system.cpu: Post execute machcode = 8a000008 pc = 14eb0 disem=b opclass=1
 156500: system.cpu: Post execute machcode = e351002e pc = 14ed8 disem=cmps opclass=1
 157000: system.cpu: Post execute machcode = e1820400 pc = 14edc disem=orr opclass=1
 157500: system.cpu: Post execute machcode = e28ee001 pc = 14ee0 disem=add opclass=1
 158000: system.cpu: Post execute machcode = 1a00000b pc = 14ee4 disem=b opclass=1
 158500: system.cpu: Post execute machcode = e35e0003 pc = 14ee8 disem=cmps opclass=1
 159000: system.cpu: Post execute machcode = a000007 pc = 14eec disem=b opclass=1
 159500: system.cpu: Post execute machcode = e28cc001 pc = 14ef0 disem=add opclass=1
 160000: system.cpu: Post execute machcode = eaffffe3 pc = 14ef4 disem=b opclass=1
 160500: system.cpu: Post execute machcode = e5dc3000 pc = 14e88 disem=ldrb opclass=32
 161000: system.cpu: Post execute machcode = e2433030 pc = 14e8c disem=sub opclass=1
 161500: system.cpu: Post execute machcode = 2e20320ff pc = 14e90 disem=and opclass=1
 162000: system.cpu: Post execute machcode = e3520009 pc = 14e94 disem=cmps opclass=1
 162500: system.cpu: Post execute machcode = 8a00001e pc = 14e98 disem=b opclass=1
 163000: system.cpu: Post execute machcode = e5dc1001 pc = 14e9c disem=ldrb opclass=32
 163500: system.cpu: Post execute machcode = e1a02003 pc = 14ea0 disem=mov opclass=1
 164000: system.cpu: Post execute machcode = e2413030 pc = 14ea4 disem=sub opclass=1
 164500: system.cpu: Post execute machcode = e3530009 pc = 14ea8 disem=cmps opclass=1
 165000: system.cpu: Post execute machcode = e28cc001 pc = 14eac disem=add opclass=1
 165500: system.cpu: Post execute machcode = 8a000008 pc = 14eb0 disem=b opclass=1
 166000: system.cpu: Post execute machcode = e351002e pc = 14ed8 disem=cmps opclass=1
 166500: system.cpu: Post execute machcode = e1820400 pc = 14edc disem=orr opclass=1
 167000: system.cpu: Post execute machcode = e28ee001 pc = 14ee0 disem=add opclass=1
 167500: system.cpu: Post execute machcode = 1a00000b pc = 14ee4 disem=b opclass=1
 168000: system.cpu: Post execute machcode = e35e0002 pc = 14f18 disem=cmps opclass=1
 168500: system.cpu: Post execute machcode = d26e3003 pc = 14f1c disem=rsb opclass=1
 169000: system.cpu: Post execute machcode = d1a03183 pc = 14f20 disem=mov opclass=1
 169500: system.cpu: Post execute machcode = d1a00310 pc = 14f24 disem=mov opclass=1
 170000: system.cpu: Post execute machcode = 2eafffff8 pc = 14f28 disem=b opclass=1
 170500: system.cpu: Post execute machcode = e28ddf72 pc = 14f10 disem=add opclass=1
 171000: system.cpu: Post execute machcode = e8bd8070 pc = 14f14 disem=ldr2_uop opclass=32
 171000: system.cpu: ##Encounter an ldm, disem=ldr2_uop opclass=32, src_num=5, dest_num=2
 171000: system.cpu: ### Destregs: 
 171000: system.cpu: 	 4 
 171000: system.cpu: 	 5 
 171500: system.cpu: Post execute machcode = e8bd8070 pc = 14f14 disem=ldr2_uop opclass=32
 171500: system.cpu: ##Encounter an ldm, disem=ldr2_uop opclass=32, src_num=5, dest_num=2
 171500: system.cpu: ### Destregs: 
 171500: system.cpu: 	 6 
 171500: system.cpu: 	 36 
 172000: system.cpu: Post execute machcode = e8bd8070 pc = 14f14 disem=addi_uop opclass=1
 172500: system.cpu: Post execute machcode = e8bd8070 pc = 14f14 disem=uopReg_uop opclass=1
 172500: system.cpu: Post execute a function RETURN machcode = e8bd8070 pc = 14f14 currentRetnNum is 3
 173000: system.cpu: Post execute machcode = e3500000 pc = 82f8 disem=cmps opclass=1
 173500: system.cpu: Post execute machcode = ba000060 pc = 82fc disem=b opclass=1
 174000: system.cpu: Post execute machcode = e59f3214 pc = 8300 disem=ldr opclass=32
 174500: system.cpu: Post execute machcode = e5933000 pc = 8304 disem=ldr opclass=32
 175000: system.cpu: Post execute machcode = e3530000 pc = 8308 disem=cmps opclass=1
 175500: system.cpu: Post execute machcode = 1a02000 pc = 830c disem=mov opclass=1
 176000: system.cpu: Post execute machcode = 1a000079 pc = 8310 disem=b opclass=1
 176500: system.cpu: Post execute machcode = e59f3200 pc = 8314 disem=ldr opclass=32
 177000: system.cpu: Post execute machcode = e5832000 pc = 8318 disem=str opclass=33
 177500: system.cpu: Post execute machcode = 2e59f31fc pc = 831c disem=ldr opclass=32
 178000: system.cpu: Post execute machcode = e1500003 pc = 8320 disem=cmps opclass=1
 178500: system.cpu: Post execute machcode = da000054 pc = 8324 disem=b opclass=1
 179000: system.cpu: Post execute machcode = 1eb000189 pc = 8328 disem=bl opclass=1
 179000: system.cpu: Post execute a function CALL machcode = 1eb000189 pc = 8328 currentCallNum is 5
 179500: system.cpu: Post execute machcode = e3a00008 pc = 8954 disem=mov opclass=1
 180000: system.cpu: Post execute machcode = e3a01010 pc = 8958 disem=mov opclass=1
 180500: system.cpu: Post execute machcode = eaffff6e pc = 895c disem=b opclass=1
 181000: system.cpu: Post execute machcode = 2e59f31fc pc = 871c disem=ldr opclass=32
 181500: system.cpu: Post execute machcode = 3e92d4ff0 pc = 8720 disem=str_uop opclass=33
 182000: system.cpu: Post execute machcode = 3e92d4ff0 pc = 8720 disem=str_uop opclass=33
 182500: system.cpu: Post execute machcode = 3e92d4ff0 pc = 8720 disem=str_uop opclass=33
 183000: system.cpu: Post execute machcode = 3e92d4ff0 pc = 8720 disem=str_uop opclass=33
 183500: system.cpu: Post execute machcode = 3e92d4ff0 pc = 8720 disem=str_uop opclass=33
 184000: system.cpu: Post execute machcode = 3e92d4ff0 pc = 8720 disem=str_uop opclass=33
 184500: system.cpu: Post execute machcode = 3e92d4ff0 pc = 8720 disem=str_uop opclass=33
 185000: system.cpu: Post execute machcode = 3e92d4ff0 pc = 8720 disem=str_uop opclass=33
 185500: system.cpu: Post execute machcode = 3e92d4ff0 pc = 8720 disem=str_uop opclass=33
 186000: system.cpu: Post execute machcode = 3e92d4ff0 pc = 8720 disem=subi_uop opclass=1
 186500: system.cpu: Post execute machcode = e1a06001 pc = 8724 disem=mov opclass=1
 187000: system.cpu: Post execute machcode = e5931000 pc = 8728 disem=ldr opclass=32
 187500: system.cpu: Post execute machcode = e24dd014 pc = 872c disem=sub opclass=1
 188000: system.cpu: Post execute machcode = e3510000 pc = 8730 disem=cmps opclass=1
 188500: system.cpu: Post execute machcode = e1a0e000 pc = 8734 disem=mov opclass=1
 189000: system.cpu: Post execute machcode = a00001d pc = 8738 disem=b opclass=1
 189500: system.cpu: Post execute machcode = e59f21e0 pc = 873c disem=ldr opclass=32
 190000: system.cpu: Post execute machcode = e5923000 pc = 8740 disem=ldr opclass=32
 190500: system.cpu: Post execute machcode = e1a03283 pc = 8744 disem=mov opclass=1
 191000: system.cpu: Post execute machcode = e0812003 pc = 8748 disem=add opclass=1
 191500: system.cpu: Post execute machcode = e1510002 pc = 874c disem=cmps opclass=1
 192000: system.cpu: Post execute machcode = 3a000003 pc = 8750 disem=b opclass=1
 192500: system.cpu: Post execute machcode = e5913000 pc = 8764 disem=ldr opclass=32
 193000: system.cpu: Post execute machcode = e3530007 pc = 8768 disem=cmps opclass=1
 193500: system.cpu: Post execute machcode = 21afffff9 pc = 876c disem=b opclass=1
 194000: system.cpu: Post execute machcode = e2811020 pc = 8758 disem=add opclass=1
 194500: system.cpu: Post execute machcode = e1510002 pc = 875c disem=cmps opclass=1
 195000: system.cpu: Post execute machcode = 2a000013 pc = 8760 disem=b opclass=1
 195500: system.cpu: Post execute machcode = e5913000 pc = 8764 disem=ldr opclass=32
 196000: system.cpu: Post execute machcode = e3530007 pc = 8768 disem=cmps opclass=1
 196500: system.cpu: Post execute machcode = 21afffff9 pc = 876c disem=b opclass=1
 197000: system.cpu: Post execute machcode = e2811020 pc = 8758 disem=add opclass=1
 197500: system.cpu: Post execute machcode = e1510002 pc = 875c disem=cmps opclass=1
 198000: system.cpu: Post execute machcode = 2a000013 pc = 8760 disem=b opclass=1
 198500: system.cpu: Post execute machcode = e5913000 pc = 8764 disem=ldr opclass=32
 199000: system.cpu: Post execute machcode = e3530007 pc = 8768 disem=cmps opclass=1
 199500: system.cpu: Post execute machcode = 21afffff9 pc = 876c disem=b opclass=1
 200000: system.cpu: Post execute machcode = e2811020 pc = 8758 disem=add opclass=1
 200500: system.cpu: Post execute machcode = e1510002 pc = 875c disem=cmps opclass=1
 201000: system.cpu: Post execute machcode = 2a000013 pc = 8760 disem=b opclass=1
 201500: system.cpu: Post execute machcode = e5913000 pc = 8764 disem=ldr opclass=32
 202000: system.cpu: Post execute machcode = e3530007 pc = 8768 disem=cmps opclass=1
 202500: system.cpu: Post execute machcode = 21afffff9 pc = 876c disem=b opclass=1
 203000: system.cpu: Post execute machcode = e2811020 pc = 8758 disem=add opclass=1
 203500: system.cpu: Post execute machcode = e1510002 pc = 875c disem=cmps opclass=1
 204000: system.cpu: Post execute machcode = 2a000013 pc = 8760 disem=b opclass=1
 204500: system.cpu: Post execute machcode = e5913000 pc = 8764 disem=ldr opclass=32
 205000: system.cpu: Post execute machcode = e3530007 pc = 8768 disem=cmps opclass=1
 205500: system.cpu: Post execute machcode = 21afffff9 pc = 876c disem=b opclass=1
 206000: system.cpu: Post execute machcode = e591401c pc = 8770 disem=ldr opclass=32
 206500: system.cpu: Post execute machcode = e5912010 pc = 8774 disem=ldr opclass=32
 207000: system.cpu: Post execute machcode = e5918014 pc = 8778 disem=ldr opclass=32
 207500: system.cpu: Post execute machcode = e5911008 pc = 877c disem=ldr opclass=32
 208000: system.cpu: Post execute machcode = e1560004 pc = 8780 disem=cmps opclass=1
 208500: system.cpu: Post execute machcode = 31a06004 pc = 8784 disem=mov opclass=1
 209000: system.cpu: Post execute machcode = e3540000 pc = 8788 disem=cmps opclass=1
 209500: system.cpu: Post execute machcode = e58d2008 pc = 878c disem=str opclass=33
 210000: system.cpu: Post execute machcode = e58d100c pc = 8790 disem=str opclass=33
 210500: system.cpu: Post execute machcode = a000009 pc = 8794 disem=b opclass=1
 211000: system.cpu: Post execute machcode = e2440001 pc = 8798 disem=sub opclass=1
 211500: system.cpu: Post execute machcode = e080000e pc = 879c disem=add opclass=1
 212000: system.cpu: Post execute machcode = e1a01004 pc = 87a0 disem=mov opclass=1
 212500: system.cpu: Post execute machcode = 1eb0169ae pc = 87a4 disem=bl opclass=1
 212500: system.cpu: Post execute a function CALL machcode = 1eb0169ae pc = 87a4 currentCallNum is 6
 213000: system.cpu: Post execute machcode = e2512001 pc = 62e64 disem=subs opclass=1
 213500: system.cpu: Post execute machcode = 1012fff1e pc = 62e68 disem=bx opclass=1
 213500: system.cpu: Post execute a function RETURN machcode = 1012fff1e pc = 62e68 currentRetnNum is 4
 214000: system.cpu: Post execute machcode = 3a000074 pc = 62e6c disem=b opclass=1
 214500: system.cpu: Post execute machcode = e1500001 pc = 62e70 disem=cmps opclass=1
 215000: system.cpu: Post execute machcode = 9a00006b pc = 62e74 disem=b opclass=1
 215500: system.cpu: Post execute machcode = e1110002 pc = 62e78 disem=tsts opclass=1
 216000: system.cpu: Post execute machcode = a00006c pc = 62e7c disem=b opclass=1
 216500: system.cpu: Post execute machcode = 1e16f2f11 pc = 63034 disem=clz opclass=1
 217000: system.cpu: Post execute machcode = e262201f pc = 63038 disem=rsb opclass=1
 217500: system.cpu: Post execute machcode = e1a00230 pc = 6303c disem=mov opclass=1
 218000: system.cpu: Post execute machcode = 1e12fff1e pc = 63040 disem=bx opclass=1
 218000: system.cpu: Post execute a function RETURN machcode = 1e12fff1e pc = 63040 currentRetnNum is 5
 218500: system.cpu: Post execute machcode = e1a0a004 pc = 87a8 disem=mov opclass=1
 219000: system.cpu: Post execute machcode = e1a0e000 pc = 87ac disem=mov opclass=1
 219500: system.cpu: Post execute machcode = ea000004 pc = 87b0 disem=b opclass=1
 220000: system.cpu: Post execute machcode = e59f3158 pc = 87c8 disem=ldr opclass=32
 220500: system.cpu: Post execute machcode = 2e00b0e94 pc = 87cc disem=mul opclass=2
 221000: system.cpu: Post execute machcode = e59f5154 pc = 87d0 disem=ldr opclass=32
 221500: system.cpu: Post execute machcode = e5930000 pc = 87d4 disem=ldr opclass=32
 222000: system.cpu: Post execute machcode = e59f9150 pc = 87d8 disem=ldr opclass=32
 222500: system.cpu: Post execute machcode = e2800e4a pc = 87dc disem=add opclass=1
 223000: system.cpu: Post execute machcode = e0800008 pc = 87e0 disem=add opclass=1
 223500: system.cpu: Post execute machcode = e0800006 pc = 87e4 disem=add opclass=1
 224000: system.cpu: Post execute machcode = e080000b pc = 87e8 disem=add opclass=1
 224500: system.cpu: Post execute machcode = 1eb00298f pc = 87ec disem=bl opclass=1
 224500: system.cpu: Post execute a function CALL machcode = 1eb00298f pc = 87ec currentCallNum is 7
 225000: system.cpu: Post execute machcode = 1e92d4030 pc = 12e30 disem=str_uop opclass=33
 225500: system.cpu: Post execute machcode = 1e92d4030 pc = 12e30 disem=str_uop opclass=33
 226000: system.cpu: Post execute machcode = 1e92d4030 pc = 12e30 disem=str_uop opclass=33
 226500: system.cpu: Post execute machcode = 1e92d4030 pc = 12e30 disem=subi_uop opclass=1
 227000: system.cpu: Post execute machcode = e59f4068 pc = 12e34 disem=ldr opclass=32
 227500: system.cpu: Post execute machcode = e24dd004 pc = 12e38 disem=sub opclass=1
 228000: system.cpu: Post execute machcode = e1a05000 pc = 12e3c disem=mov opclass=1
 228500: system.cpu: Post execute machcode = e5943000 pc = 12e40 disem=ldr opclass=32
 229000: system.cpu: Post execute machcode = e3530000 pc = 12e44 disem=cmps opclass=1
 229500: system.cpu: Post execute machcode = a000009 pc = 12e48 disem=b opclass=1
 230000: system.cpu: Post execute machcode = e3a00000 pc = 12e74 disem=mov opclass=1
 230500: system.cpu: Post execute machcode = 1eb008069 pc = 12e78 disem=bl opclass=1
 230500: system.cpu: Post execute a function CALL machcode = 1eb008069 pc = 12e78 currentCallNum is 8
 231000: system.cpu: Post execute machcode = 3e92d4090 pc = 33024 disem=str_uop opclass=33
 231500: system.cpu: Post execute machcode = 3e92d4090 pc = 33024 disem=str_uop opclass=33
 232000: system.cpu: Post execute machcode = 3e92d4090 pc = 33024 disem=str_uop opclass=33
 232500: system.cpu: Post execute machcode = 3e92d4090 pc = 33024 disem=subi_uop opclass=1
 233000: system.cpu: Post execute machcode = e1a04000 pc = 33028 disem=mov opclass=1
 233500: system.cpu: Post execute machcode = e3a0702d pc = 3302c disem=mov opclass=1
 234000: system.cpu: Post execute machcode = 1ef000000 pc = 33030 disem=svc opclass=1
 234500: system.cpu: Post execute machcode = e3700a01 pc = 33034 disem=cmns opclass=1
 235000: system.cpu: Post execute machcode = e1a03000 pc = 33038 disem=mov opclass=1
 235500: system.cpu: Post execute machcode = 91a01000 pc = 3303c disem=mov opclass=1
 236000: system.cpu: Post execute machcode = 8a00000d pc = 33040 disem=b opclass=1
 236500: system.cpu: Post execute machcode = e59f304c pc = 33044 disem=ldr opclass=32
 237000: system.cpu: Post execute machcode = e1540001 pc = 33048 disem=cmps opclass=1
 237500: system.cpu: Post execute machcode = e5831000 pc = 3304c disem=str opclass=33
 238000: system.cpu: Post execute machcode = 93a01000 pc = 33050 disem=mov opclass=1
 238500: system.cpu: Post execute machcode = 8a000001 pc = 33054 disem=b opclass=1
 239000: system.cpu: Post execute machcode = e1a00001 pc = 33058 disem=mov opclass=1
 239500: system.cpu: Post execute machcode = 2e8bd8090 pc = 3305c disem=ldr2_uop opclass=32
 239500: system.cpu: ##Encounter an ldm, disem=ldr2_uop opclass=32, src_num=5, dest_num=2
 239500: system.cpu: ### Destregs: 
 239500: system.cpu: 	 4 
 239500: system.cpu: 	 7 
 240000: system.cpu: Post execute machcode = 2e8bd8090 pc = 3305c disem=ldr_uop opclass=32
 240500: system.cpu: Post execute machcode = 2e8bd8090 pc = 3305c disem=addi_uop opclass=1
 241000: system.cpu: Post execute machcode = 2e8bd8090 pc = 3305c disem=uopReg_uop opclass=1
 241000: system.cpu: Post execute a function RETURN machcode = 2e8bd8090 pc = 3305c currentRetnNum is 6
 241500: system.cpu: Post execute machcode = e3500000 pc = 12e7c disem=cmps opclass=1
 242000: system.cpu: Post execute machcode = 2aafffff5 pc = 12e80 disem=b opclass=1
 242500: system.cpu: Post execute machcode = e3550000 pc = 12e5c disem=cmps opclass=1
 243000: system.cpu: Post execute machcode = 5944000 pc = 12e60 disem=ldr opclass=32
 243500: system.cpu: Post execute machcode = 1a000008 pc = 12e64 disem=b opclass=1
 244000: system.cpu: Post execute machcode = e5944000 pc = 12e8c disem=ldr opclass=32
 244500: system.cpu: Post execute machcode = e0840005 pc = 12e90 disem=add opclass=1
 245000: system.cpu: Post execute machcode = 1eb008062 pc = 12e94 disem=bl opclass=1
 245000: system.cpu: Post execute a function CALL machcode = 1eb008062 pc = 12e94 currentCallNum is 9
 245500: system.cpu: Post execute machcode = 3e92d4090 pc = 33024 disem=str_uop opclass=33
 246000: system.cpu: Post execute machcode = 3e92d4090 pc = 33024 disem=str_uop opclass=33
 246500: system.cpu: Post execute machcode = 3e92d4090 pc = 33024 disem=str_uop opclass=33
 247000: system.cpu: Post execute machcode = 3e92d4090 pc = 33024 disem=subi_uop opclass=1
 247500: system.cpu: Post execute machcode = e1a04000 pc = 33028 disem=mov opclass=1
 248000: system.cpu: Post execute machcode = e3a0702d pc = 3302c disem=mov opclass=1
 248500: system.cpu: Post execute machcode = 1ef000000 pc = 33030 disem=svc opclass=1
 249000: system.cpu: Post execute machcode = e3700a01 pc = 33034 disem=cmns opclass=1
 249500: system.cpu: Post execute machcode = e1a03000 pc = 33038 disem=mov opclass=1
 250000: system.cpu: Post execute machcode = 91a01000 pc = 3303c disem=mov opclass=1
 250500: system.cpu: Post execute machcode = 8a00000d pc = 33040 disem=b opclass=1
 251000: system.cpu: Post execute machcode = e59f304c pc = 33044 disem=ldr opclass=32
 251500: system.cpu: Post execute machcode = e1540001 pc = 33048 disem=cmps opclass=1
 252000: system.cpu: Post execute machcode = e5831000 pc = 3304c disem=str opclass=33
 252500: system.cpu: Post execute machcode = 93a01000 pc = 33050 disem=mov opclass=1
 253000: system.cpu: Post execute machcode = 8a000001 pc = 33054 disem=b opclass=1
 253500: system.cpu: Post execute machcode = e1a00001 pc = 33058 disem=mov opclass=1
 254000: system.cpu: Post execute machcode = 2e8bd8090 pc = 3305c disem=ldr2_uop opclass=32
 254000: system.cpu: ##Encounter an ldm, disem=ldr2_uop opclass=32, src_num=5, dest_num=2
 254000: system.cpu: ### Destregs: 
 254000: system.cpu: 	 4 
 254000: system.cpu: 	 7 
 254500: system.cpu: Post execute machcode = 2e8bd8090 pc = 3305c disem=ldr_uop opclass=32
 255000: system.cpu: Post execute machcode = 2e8bd8090 pc = 3305c disem=addi_uop opclass=1
 255500: system.cpu: Post execute machcode = 2e8bd8090 pc = 3305c disem=uopReg_uop opclass=1
 255500: system.cpu: Post execute a function RETURN machcode = 2e8bd8090 pc = 3305c currentRetnNum is 7
 256000: system.cpu: Post execute machcode = e3500000 pc = 12e98 disem=cmps opclass=1
 256500: system.cpu: Post execute machcode = 2aafffff1 pc = 12e9c disem=b opclass=1
 257000: system.cpu: Post execute machcode = e1a00004 pc = 12e68 disem=mov opclass=1
 257500: system.cpu: Post execute machcode = e28dd004 pc = 12e6c disem=add opclass=1
 258000: system.cpu: Post execute machcode = e8bd8030 pc = 12e70 disem=ldr2_uop opclass=32
 258000: system.cpu: ##Encounter an ldm, disem=ldr2_uop opclass=32, src_num=5, dest_num=2
 258000: system.cpu: ### Destregs: 
 258000: system.cpu: 	 4 
 258000: system.cpu: 	 5 
 258500: system.cpu: Post execute machcode = e8bd8030 pc = 12e70 disem=ldr_uop opclass=32
 259000: system.cpu: Post execute machcode = e8bd8030 pc = 12e70 disem=addi_uop opclass=1
 259500: system.cpu: Post execute machcode = e8bd8030 pc = 12e70 disem=uopReg_uop opclass=1
 259500: system.cpu: Post execute a function RETURN machcode = e8bd8030 pc = 12e70 currentRetnNum is 8
 260000: system.cpu: Post execute machcode = e59d100c pc = 87f0 disem=ldr opclass=32
 260500: system.cpu: Post execute machcode = e589b234 pc = 87f4 disem=str opclass=33
 261000: system.cpu: Post execute machcode = e2662000 pc = 87f8 disem=rsb opclass=1
 261500: system.cpu: Post execute machcode = e3a0303e pc = 87fc disem=mov opclass=1
 262000: system.cpu: Post execute machcode = e58d2004 pc = 8800 disem=str opclass=33
 262500: system.cpu: Post execute machcode = e59d2008 pc = 8804 disem=ldr opclass=32
 263000: system.cpu: Post execute machcode = e5853000 pc = 8808 disem=str opclass=33
 263500: system.cpu: Post execute machcode = e3a03001 pc = 880c disem=mov opclass=1
 264000: system.cpu: Post execute machcode = e5c53014 pc = 8810 disem=strb opclass=33
 264500: system.cpu: Post execute machcode = e59d3004 pc = 8814 disem=ldr opclass=32
 265000: system.cpu: Post execute machcode = e246c001 pc = 8818 disem=sub opclass=1
 265500: system.cpu: Post execute machcode = e59f7110 pc = 881c disem=ldr opclass=32
 266000: system.cpu: Post execute machcode = e2804e4a pc = 8820 disem=add opclass=1
 266500: system.cpu: Post execute machcode = e084400c pc = 8824 disem=add opclass=1
 267000: system.cpu: Post execute machcode = e0044003 pc = 8828 disem=and opclass=1
 267500: system.cpu: Post execute machcode = e084300b pc = 882c disem=add opclass=1
 268000: system.cpu: Post execute machcode = e1a00003 pc = 8830 disem=mov opclass=1
 268500: system.cpu: Post execute machcode = e5853010 pc = 8834 disem=str opclass=33
 269000: system.cpu: Post execute machcode = 1eb00267c pc = 8838 disem=bl opclass=1
 269000: system.cpu: Post execute a function CALL machcode = 1eb00267c pc = 8838 currentCallNum is 10
 269500: system.cpu: Post execute machcode = 1e92d4011 pc = 12230 disem=str_uop opclass=33
 270000: system.cpu: Post execute machcode = 1e92d4011 pc = 12230 disem=str_uop opclass=33
 270500: system.cpu: Post execute machcode = 1e92d4011 pc = 12230 disem=str_uop opclass=33
 271000: system.cpu: Post execute machcode = 1e92d4011 pc = 12230 disem=subi_uop opclass=1
 271500: system.cpu: Post execute machcode = e2522004 pc = 12234 disem=subs opclass=1
 272000: system.cpu: Post execute machcode = ba000021 pc = 12238 disem=b opclass=1
 272500: system.cpu: Post execute machcode = e210c003 pc = 1223c disem=ands opclass=1
 273000: system.cpu: Post execute machcode = 1a000027 pc = 12240 disem=b opclass=1
 273500: system.cpu: Post execute machcode = e211c003 pc = 12244 disem=ands opclass=1
 274000: system.cpu: Post execute machcode = 1a000031 pc = 12248 disem=b opclass=1
 274500: system.cpu: Post execute machcode = e252201c pc = 1224c disem=subs opclass=1
 275000: system.cpu: Post execute machcode = 1e92d01e0 pc = 12250 disem=str_uop opclass=33
 275500: system.cpu: Post execute machcode = 1e92d01e0 pc = 12250 disem=str_uop opclass=33
 276000: system.cpu: Post execute machcode = 1e92d01e0 pc = 12250 disem=str_uop opclass=33
 276500: system.cpu: Post execute machcode = 1e92d01e0 pc = 12250 disem=str_uop opclass=33
 277000: system.cpu: Post execute machcode = 1e92d01e0 pc = 12250 disem=subi_uop opclass=1
 277500: system.cpu: Post execute machcode = ba000003 pc = 12254 disem=b opclass=1
 278000: system.cpu: Post execute machcode = e212c01c pc = 12268 disem=ands opclass=1
 278500: system.cpu: Post execute machcode = e26cc020 pc = 1226c disem=rsb opclass=1
 279000: system.cpu: Post execute machcode = 108ff00c pc = 12270 disem=add opclass=1
 279500: system.cpu: Post execute machcode = e4916004 pc = 12288 disem=ldr opclass=32
 280000: system.cpu: Post execute machcode = e4916004 pc = 12288 disem=addi_uop opclass=1
 280500: system.cpu: Post execute machcode = e4917004 pc = 1228c disem=ldr opclass=32
 281000: system.cpu: Post execute machcode = e4917004 pc = 1228c disem=addi_uop opclass=1
 281500: system.cpu: Post execute machcode = e4918004 pc = 12290 disem=ldr opclass=32
 282000: system.cpu: Post execute machcode = e4918004 pc = 12290 disem=addi_uop opclass=1
 282500: system.cpu: Post execute machcode = e491e004 pc = 12294 disem=ldr opclass=32
 283000: system.cpu: Post execute machcode = e491e004 pc = 12294 disem=addi_uop opclass=1
 283500: system.cpu: Post execute machcode = e08ff00c pc = 12298 disem=add opclass=1
 284000: system.cpu: Post execute machcode = e4806004 pc = 122b0 disem=str opclass=33
 284500: system.cpu: Post execute machcode = e4806004 pc = 122b0 disem=addi_uop opclass=1
 285000: system.cpu: Post execute machcode = e4807004 pc = 122b4 disem=str opclass=33
 285500: system.cpu: Post execute machcode = e4807004 pc = 122b4 disem=addi_uop opclass=1
 286000: system.cpu: Post execute machcode = e4808004 pc = 122b8 disem=str opclass=33
 286500: system.cpu: Post execute machcode = e4808004 pc = 122b8 disem=addi_uop opclass=1
 287000: system.cpu: Post execute machcode = e480e004 pc = 122bc disem=str opclass=33
 287500: system.cpu: Post execute machcode = e480e004 pc = 122bc disem=addi_uop opclass=1
 288000: system.cpu: Post execute machcode = e8bd01e0 pc = 122c0 disem=ldr2_uop opclass=32
 288000: system.cpu: ##Encounter an ldm, disem=ldr2_uop opclass=32, src_num=5, dest_num=2
 288000: system.cpu: ### Destregs: 
 288000: system.cpu: 	 5 
 288000: system.cpu: 	 6 
 288500: system.cpu: Post execute machcode = e8bd01e0 pc = 122c0 disem=ldr2_uop opclass=32
 288500: system.cpu: ##Encounter an ldm, disem=ldr2_uop opclass=32, src_num=5, dest_num=2
 288500: system.cpu: ### Destregs: 
 288500: system.cpu: 	 7 
 288500: system.cpu: 	 8 
 289000: system.cpu: Post execute machcode = e8bd01e0 pc = 122c0 disem=addi_uop opclass=1
 289500: system.cpu: Post execute machcode = e1b02f82 pc = 122c4 disem=movs opclass=1
 290000: system.cpu: Post execute machcode = 14d13001 pc = 122c8 disem=ldrb opclass=32
 290500: system.cpu: Post execute machcode = 14d13001 pc = 122c8 disem=addi_uop opclass=1
 291000: system.cpu: Post execute machcode = 24d14001 pc = 122cc disem=ldrb opclass=32
 291500: system.cpu: Post execute machcode = 24d14001 pc = 122cc disem=addi_uop opclass=1
 292000: system.cpu: Post execute machcode = 25d1c000 pc = 122d0 disem=ldrb opclass=32
 292500: system.cpu: Post execute machcode = 14c03001 pc = 122d4 disem=strb opclass=33
 293000: system.cpu: Post execute machcode = 14c03001 pc = 122d4 disem=addi_uop opclass=1
 293500: system.cpu: Post execute machcode = 24c04001 pc = 122d8 disem=strb opclass=33
 294000: system.cpu: Post execute machcode = 24c04001 pc = 122d8 disem=addi_uop opclass=1
 294500: system.cpu: Post execute machcode = 25c0c000 pc = 122dc disem=strb opclass=33
 295000: system.cpu: Post execute machcode = e8bd8011 pc = 122e0 disem=ldr2_uop opclass=32
 295000: system.cpu: ##Encounter an ldm, disem=ldr2_uop opclass=32, src_num=5, dest_num=2
 295000: system.cpu: ### Destregs: 
 295000: system.cpu: 	 0 
 295000: system.cpu: 	 4 
 295500: system.cpu: Post execute machcode = e8bd8011 pc = 122e0 disem=ldr_uop opclass=32
 296000: system.cpu: Post execute machcode = e8bd8011 pc = 122e0 disem=addi_uop opclass=1
 296500: system.cpu: Post execute machcode = e8bd8011 pc = 122e0 disem=uopReg_uop opclass=1
 296500: system.cpu: Post execute a function RETURN machcode = e8bd8011 pc = 122e0 currentRetnNum is 9
 297000: system.cpu: Post execute machcode = e2855008 pc = 883c disem=add opclass=1
 297500: system.cpu: Post execute machcode = e1a00004 pc = 8840 disem=mov opclass=1
 298000: system.cpu: Post execute machcode = e5845000 pc = 8844 disem=str opclass=33
 298500: system.cpu: Post execute machcode = 1ef000000 pc = 8848 disem=svc opclass=1
 299000: system.cpu: Post execute machcode = e3700a01 pc = 884c disem=cmns opclass=1
 299500: system.cpu: Post execute machcode = 9a000001 pc = 8850 disem=b opclass=1
 300000: system.cpu: Post execute machcode = e59d300c pc = 885c disem=ldr opclass=32
 300500: system.cpu: Post execute machcode = e59d2008 pc = 8860 disem=ldr opclass=32
 301000: system.cpu: Post execute machcode = 2e5d91194 pc = 8864 disem=ldrb opclass=32
 301500: system.cpu: Post execute machcode = e5893220 pc = 8868 disem=str opclass=33
 302000: system.cpu: Post execute machcode = e59f30c8 pc = 886c disem=ldr opclass=32
 302500: system.cpu: Post execute machcode = e59f00c8 pc = 8870 disem=ldr opclass=32
 303000: system.cpu: Post execute machcode = e5892224 pc = 8874 disem=str opclass=33
 303500: system.cpu: Post execute machcode = e3a02001 pc = 8878 disem=mov opclass=1
 304000: system.cpu: Post execute machcode = e5832000 pc = 887c disem=str opclass=33
 304500: system.cpu: Post execute machcode = 2e59f20bc pc = 8880 disem=ldr opclass=32
 305000: system.cpu: Post execute machcode = e35a0000 pc = 8884 disem=cmps opclass=1
 305500: system.cpu: Post execute machcode = e3a03001 pc = 8888 disem=mov opclass=1
 306000: system.cpu: Post execute machcode = e5809014 pc = 888c disem=str opclass=33
 306500: system.cpu: Post execute machcode = e5820000 pc = 8890 disem=str opclass=33
 307000: system.cpu: Post execute machcode = e3c11003 pc = 8894 disem=bic opclass=1
 307500: system.cpu: Post execute machcode = e589a22c pc = 8898 disem=str opclass=33
 308000: system.cpu: Post execute machcode = 2e5c91194 pc = 889c disem=strb opclass=33
 308500: system.cpu: Post execute machcode = e5893238 pc = 88a0 disem=str opclass=33
 309000: system.cpu: Post execute machcode = e5898228 pc = 88a4 disem=str opclass=33
 309500: system.cpu: Post execute machcode = e283303f pc = 88a8 disem=add opclass=1
 310000: system.cpu: Post execute machcode = 28aa001 pc = 88ac disem=add opclass=1
 310500: system.cpu: Post execute machcode = e5803000 pc = 88b0 disem=str opclass=33
 311000: system.cpu: Post execute machcode = 1a000013 pc = 88b4 disem=b opclass=1
 311500: system.cpu: Post execute machcode = e088000a pc = 8908 disem=add opclass=1
 312000: system.cpu: Post execute machcode = e2400001 pc = 890c disem=sub opclass=1
 312500: system.cpu: Post execute machcode = e1a0100a pc = 8910 disem=mov opclass=1
 313000: system.cpu: Post execute machcode = 1eb016952 pc = 8914 disem=bl opclass=1
 313000: system.cpu: Post execute a function CALL machcode = 1eb016952 pc = 8914 currentCallNum is 11
 313500: system.cpu: Post execute machcode = e2512001 pc = 62e64 disem=subs opclass=1
 314000: system.cpu: Post execute machcode = 1012fff1e pc = 62e68 disem=bx opclass=1
 314000: system.cpu: Post execute a function RETURN machcode = 1012fff1e pc = 62e68 currentRetnNum is 10
 314500: system.cpu: Post execute machcode = 3a000074 pc = 62e6c disem=b opclass=1
 315000: system.cpu: Post execute machcode = e1500001 pc = 62e70 disem=cmps opclass=1
 315500: system.cpu: Post execute machcode = 9a00006b pc = 62e74 disem=b opclass=1
 316000: system.cpu: Post execute machcode = e1110002 pc = 62e78 disem=tsts opclass=1
 316500: system.cpu: Post execute machcode = a00006c pc = 62e7c disem=b opclass=1
 317000: system.cpu: Post execute machcode = 1e16f2f11 pc = 63034 disem=clz opclass=1
 317500: system.cpu: Post execute machcode = e262201f pc = 63038 disem=rsb opclass=1
 318000: system.cpu: Post execute machcode = e1a00230 pc = 6303c disem=mov opclass=1
 318500: system.cpu: Post execute machcode = 1e12fff1e pc = 63040 disem=bx opclass=1
 318500: system.cpu: Post execute a function RETURN machcode = 1e12fff1e pc = 63040 currentRetnNum is 11
 319000: system.cpu: Post execute machcode = e1a08000 pc = 8918 disem=mov opclass=1
 319500: system.cpu: Post execute machcode = eaffffe5 pc = 891c disem=b opclass=1
 320000: system.cpu: Post execute machcode = 2e020b89a pc = 88b8 disem=mla opclass=2
 320500: system.cpu: Post execute machcode = e59f2064 pc = 88bc disem=ldr opclass=32
 321000: system.cpu: Post execute machcode = e3560010 pc = 88c0 disem=cmps opclass=1
 321500: system.cpu: Post execute machcode = 21a01006 pc = 88c4 disem=mov opclass=1
 322000: system.cpu: Post execute machcode = 33a01010 pc = 88c8 disem=mov opclass=1
 322500: system.cpu: Post execute machcode = e5923000 pc = 88cc disem=ldr opclass=32
 323000: system.cpu: Post execute machcode = e59f2070 pc = 88d0 disem=ldr opclass=32
 323500: system.cpu: Post execute machcode = e283300f pc = 88d4 disem=add opclass=1
 324000: system.cpu: Post execute machcode = e0833000 pc = 88d8 disem=add opclass=1
 324500: system.cpu: Post execute machcode = e5820000 pc = 88dc disem=str opclass=33
 325000: system.cpu: Post execute machcode = e59f2064 pc = 88e0 disem=ldr opclass=32
 325500: system.cpu: Post execute machcode = e3c3300f pc = 88e4 disem=bic opclass=1
 326000: system.cpu: Post execute machcode = e5821000 pc = 88e8 disem=str opclass=33
 326500: system.cpu: Post execute machcode = e59f2034 pc = 88ec disem=ldr opclass=32
 327000: system.cpu: Post execute machcode = e5823000 pc = 88f0 disem=str opclass=33
 327500: system.cpu: Post execute machcode = e59f3054 pc = 88f4 disem=ldr opclass=32
 328000: system.cpu: Post execute machcode = e3a02001 pc = 88f8 disem=mov opclass=1
 328500: system.cpu: Post execute machcode = e5832000 pc = 88fc disem=str opclass=33
 329000: system.cpu: Post execute machcode = e28dd014 pc = 8900 disem=add opclass=1
 329500: system.cpu: Post execute machcode = 2e8bd8ff0 pc = 8904 disem=ldr2_uop opclass=32
 329500: system.cpu: ##Encounter an ldm, disem=ldr2_uop opclass=32, src_num=5, dest_num=2
 329500: system.cpu: ### Destregs: 
 329500: system.cpu: 	 4 
 329500: system.cpu: 	 5 
 330000: system.cpu: Post execute machcode = 2e8bd8ff0 pc = 8904 disem=ldr2_uop opclass=32
 330000: system.cpu: ##Encounter an ldm, disem=ldr2_uop opclass=32, src_num=5, dest_num=2
 330000: system.cpu: ### Destregs: 
 330000: system.cpu: 	 6 
 330000: system.cpu: 	 7 
 330500: system.cpu: Post execute machcode = 2e8bd8ff0 pc = 8904 disem=ldr2_uop opclass=32
 330500: system.cpu: ##Encounter an ldm, disem=ldr2_uop opclass=32, src_num=5, dest_num=2
 330500: system.cpu: ### Destregs: 
 330500: system.cpu: 	 8 
 330500: system.cpu: 	 9 
 331000: system.cpu: Post execute machcode = 2e8bd8ff0 pc = 8904 disem=ldr2_uop opclass=32
 331000: system.cpu: ##Encounter an ldm, disem=ldr2_uop opclass=32, src_num=5, dest_num=2
 331000: system.cpu: ### Destregs: 
 331000: system.cpu: 	 10 
 331000: system.cpu: 	 11 
 331500: system.cpu: Post execute machcode = 2e8bd8ff0 pc = 8904 disem=ldr_uop opclass=32
 332000: system.cpu: Post execute machcode = 2e8bd8ff0 pc = 8904 disem=addi_uop opclass=1
 332500: system.cpu: Post execute machcode = 2e8bd8ff0 pc = 8904 disem=uopReg_uop opclass=1
 332500: system.cpu: Post execute a function RETURN machcode = 2e8bd8ff0 pc = 8904 currentRetnNum is 12
 333000: system.cpu: Post execute machcode = 2e59f01f0 pc = 832c disem=ldr opclass=32
 333500: system.cpu: Post execute machcode = e3a01000 pc = 8330 disem=mov opclass=1
 334000: system.cpu: Post execute machcode = 1eb002a09 pc = 8334 disem=bl opclass=1
 334000: system.cpu: Post execute a function CALL machcode = 1eb002a09 pc = 8334 currentCallNum is 12
 334500: system.cpu: Post execute machcode = e51fc028 pc = 12b60 disem=ldr opclass=32
 335000: system.cpu: Post execute machcode = e79fc00c pc = 12b64 disem=ldr opclass=32
 335500: system.cpu: Post execute machcode = e33c0000 pc = 12b68 disem=teqs opclass=1
 336000: system.cpu: Post execute machcode = 1a000006 pc = 12b6c disem=b opclass=1
 336500: system.cpu: Post execute machcode = e1a0c007 pc = 12b70 disem=mov opclass=1
 337000: system.cpu: Post execute machcode = e3a07005 pc = 12b74 disem=mov opclass=1
 337500: system.cpu: Post execute machcode = 1ef000000 pc = 12b78 disem=svc opclass=1
 338000: system.cpu: Post execute machcode = e1a0700c pc = 12b7c disem=mov opclass=1
 338500: system.cpu: Post execute machcode = e3700a01 pc = 12b80 disem=cmns opclass=1
 339000: system.cpu: Post execute machcode = 1312fff1e pc = 12b84 disem=bx opclass=1
 339000: system.cpu: Post execute a function RETURN machcode = 1312fff1e pc = 12b84 currentRetnNum is 13
 339500: system.cpu: Post execute machcode = e2505000 pc = 8338 disem=subs opclass=1
 340000: system.cpu: Post execute machcode = ba000008 pc = 833c disem=b opclass=1
 340500: system.cpu: Post execute machcode = e3a02004 pc = 8340 disem=mov opclass=1
 341000: system.cpu: Post execute machcode = e28d1f4b pc = 8344 disem=add opclass=1
 341500: system.cpu: Post execute machcode = 1eb002a4c pc = 8348 disem=bl opclass=1
 341500: system.cpu: Post execute a function CALL machcode = 1eb002a4c pc = 8348 currentCallNum is 13
 342000: system.cpu: Post execute machcode = e51fc028 pc = 12c80 disem=ldr opclass=32
 342500: system.cpu: Post execute machcode = e79fc00c pc = 12c84 disem=ldr opclass=32
 343000: system.cpu: Post execute machcode = e33c0000 pc = 12c88 disem=teqs opclass=1
 343500: system.cpu: Post execute machcode = 1a000006 pc = 12c8c disem=b opclass=1
 344000: system.cpu: Post execute machcode = e1a0c007 pc = 12c90 disem=mov opclass=1
 344500: system.cpu: Post execute machcode = e3a07003 pc = 12c94 disem=mov opclass=1
 345000: system.cpu: Post execute machcode = 1ef000000 pc = 12c98 disem=svc opclass=1
 345500: system.cpu: Post execute machcode = e1a0700c pc = 12c9c disem=mov opclass=1
 346000: system.cpu: Post execute machcode = e3700a01 pc = 12ca0 disem=cmns opclass=1
 346500: system.cpu: Post execute machcode = 1312fff1e pc = 12ca4 disem=bx opclass=1
 346500: system.cpu: Post execute a function RETURN machcode = 1312fff1e pc = 12ca4 currentRetnNum is 14
 347000: system.cpu: Post execute machcode = e1a04000 pc = 834c disem=mov opclass=1
 347500: system.cpu: Post execute machcode = e1a00005 pc = 8350 disem=mov opclass=1
 348000: system.cpu: Post execute machcode = 1eb002a25 pc = 8354 disem=bl opclass=1
 348000: system.cpu: Post execute a function CALL machcode = 1eb002a25 pc = 8354 currentCallNum is 14
 348500: system.cpu: Post execute machcode = e51fc028 pc = 12bf0 disem=ldr opclass=32
 349000: system.cpu: Post execute machcode = e79fc00c pc = 12bf4 disem=ldr opclass=32
 349500: system.cpu: Post execute machcode = e33c0000 pc = 12bf8 disem=teqs opclass=1
 350000: system.cpu: Post execute machcode = 1a000006 pc = 12bfc disem=b opclass=1
 350500: system.cpu: Post execute machcode = e1a0c007 pc = 12c00 disem=mov opclass=1
 351000: system.cpu: Post execute machcode = e3a07006 pc = 12c04 disem=mov opclass=1
 351500: system.cpu: Post execute machcode = 1ef000000 pc = 12c08 disem=svc opclass=1
 352000: system.cpu: Post execute machcode = e1a0700c pc = 12c0c disem=mov opclass=1
 352500: system.cpu: Post execute machcode = e3700a01 pc = 12c10 disem=cmns opclass=1
 353000: system.cpu: Post execute machcode = 1312fff1e pc = 12c14 disem=bx opclass=1
 353000: system.cpu: Post execute a function RETURN machcode = 1312fff1e pc = 12c14 currentRetnNum is 15
 353500: system.cpu: Post execute machcode = e3540004 pc = 8358 disem=cmps opclass=1
 354000: system.cpu: Post execute machcode = 59d212c pc = 835c disem=ldr opclass=32
 354500: system.cpu: Post execute machcode = a000013 pc = 8360 disem=b opclass=1
 355000: system.cpu: Post execute machcode = e59f3174 pc = 83b4 disem=ldr opclass=32
 355500: system.cpu: Post execute machcode = e3570000 pc = 83b8 disem=cmps opclass=1
 356000: system.cpu: Post execute machcode = e5832000 pc = 83bc disem=str opclass=33
 356500: system.cpu: Post execute machcode = a000003 pc = 83c0 disem=b opclass=1
 357000: system.cpu: Post execute machcode = e59f313c pc = 83d4 disem=ldr opclass=32
 357500: system.cpu: Post execute machcode = e59d0008 pc = 83d8 disem=ldr opclass=32
 358000: system.cpu: Post execute machcode = e59d1004 pc = 83dc disem=ldr opclass=32
 358500: system.cpu: Post execute machcode = e5932000 pc = 83e0 disem=ldr opclass=32
 359000: system.cpu: Post execute machcode = 1eb0032e2 pc = 83e4 disem=bl opclass=1
 359000: system.cpu: Post execute a function CALL machcode = 1eb0032e2 pc = 83e4 currentCallNum is 15
 359500: system.cpu: Post execute machcode = e59f307c pc = 14f74 disem=ldr opclass=32
 360000: system.cpu: Post execute machcode = 1e92d4070 pc = 14f78 disem=str_uop opclass=33
 360500: system.cpu: Post execute machcode = 1e92d4070 pc = 14f78 disem=str_uop opclass=33
 361000: system.cpu: Post execute machcode = 1e92d4070 pc = 14f78 disem=str_uop opclass=33
 361500: system.cpu: Post execute machcode = 1e92d4070 pc = 14f78 disem=str_uop opclass=33
 362000: system.cpu: Post execute machcode = 1e92d4070 pc = 14f78 disem=subi_uop opclass=1
 362500: system.cpu: Post execute machcode = e3530000 pc = 14f7c disem=cmps opclass=1
 363000: system.cpu: Post execute machcode = e1a06000 pc = 14f80 disem=mov opclass=1
 363500: system.cpu: Post execute machcode = e1a04001 pc = 14f84 disem=mov opclass=1
 364000: system.cpu: Post execute machcode = e1a05002 pc = 14f88 disem=mov opclass=1
 364500: system.cpu: Post execute machcode = 1a000012 pc = 14f8c disem=b opclass=1
 365000: system.cpu: Post execute machcode = e59f3064 pc = 14f90 disem=ldr opclass=32
 365500: system.cpu: Post execute machcode = e3a02000 pc = 14f94 disem=mov opclass=1
 366000: system.cpu: Post execute machcode = e5930000 pc = 14f98 disem=ldr opclass=32
 366500: system.cpu: Post execute machcode = e59f305c pc = 14f9c disem=ldr opclass=32
 367000: system.cpu: Post execute machcode = e5832000 pc = 14fa0 disem=str opclass=33
 367500: system.cpu: Post execute machcode = 1eb0011e6 pc = 14fa4 disem=bl opclass=1
 367500: system.cpu: Post execute a function CALL machcode = 1eb0011e6 pc = 14fa4 currentCallNum is 16
 368000: system.cpu: Post execute machcode = e59f3040 pc = 19744 disem=ldr opclass=32
 368500: system.cpu: Post execute machcode = 1e92d0070 pc = 19748 disem=str_uop opclass=33
 369000: system.cpu: Post execute machcode = 1e92d0070 pc = 19748 disem=str_uop opclass=33
 369500: system.cpu: Post execute machcode = 1e92d0070 pc = 19748 disem=str_uop opclass=33
 370000: system.cpu: Post execute machcode = 1e92d0070 pc = 19748 disem=subi_uop opclass=1
 370500: system.cpu: Post execute machcode = e3a02000 pc = 1974c disem=mov opclass=1
 371000: system.cpu: Post execute machcode = e8930060 pc = 19750 disem=ldr2_uop opclass=32
 371000: system.cpu: ##Encounter an ldm, disem=ldr2_uop opclass=32, src_num=5, dest_num=2
 371000: system.cpu: ### Destregs: 
 371000: system.cpu: 	 5 
 371000: system.cpu: 	 6 
 371500: system.cpu: Post execute machcode = e3a01040 pc = 19754 disem=mov opclass=1
 372000: system.cpu: Post execute machcode = e0053001 pc = 19758 disem=and opclass=1
 372500: system.cpu: Post execute machcode = e0064002 pc = 1975c disem=and opclass=1
 373000: system.cpu: Post execute machcode = e1932004 pc = 19760 disem=orrs opclass=1
 373500: system.cpu: Post execute machcode = a000006 pc = 19764 disem=b opclass=1
 374000: system.cpu: Post execute machcode = eef11a10 pc = 19768 disem=vmrs opclass=28
 374500: system.cpu: Post execute machcode = e59f201c pc = 1976c disem=ldr opclass=32
 375000: system.cpu: Post execute machcode = e59f301c pc = 19770 disem=ldr opclass=32
 375500: system.cpu: Post execute machcode = e0012002 pc = 19774 disem=and opclass=1
 376000: system.cpu: Post execute machcode = e0003003 pc = 19778 disem=and opclass=1
 376500: system.cpu: Post execute machcode = e1822003 pc = 1977c disem=orr opclass=1
 377000: system.cpu: Post execute machcode = eee12a10 pc = 19780 disem=vmsr opclass=28
 377500: system.cpu: Post execute machcode = e8bd0070 pc = 19784 disem=ldr2_uop opclass=32
 377500: system.cpu: ##Encounter an ldm, disem=ldr2_uop opclass=32, src_num=5, dest_num=2
 377500: system.cpu: ### Destregs: 
 377500: system.cpu: 	 4 
 377500: system.cpu: 	 5 
 378000: system.cpu: Post execute machcode = e8bd0070 pc = 19784 disem=ldr_uop opclass=32
 378500: system.cpu: Post execute machcode = e8bd0070 pc = 19784 disem=addi_uop opclass=1
 379000: system.cpu: Post execute machcode = 1e12fff1e pc = 19788 disem=bx opclass=1
 379000: system.cpu: Post execute a function RETURN machcode = 1e12fff1e pc = 19788 currentRetnNum is 16
 379500: system.cpu: Post execute machcode = e59f3054 pc = 14fa8 disem=ldr opclass=32
 380000: system.cpu: Post execute machcode = e59f2054 pc = 14fac disem=ldr opclass=32
 380500: system.cpu: Post execute machcode = e5836000 pc = 14fb0 disem=str opclass=33
 381000: system.cpu: Post execute machcode = e59f3050 pc = 14fb4 disem=ldr opclass=32
 381500: system.cpu: Post execute machcode = e5824000 pc = 14fb8 disem=str opclass=33
 382000: system.cpu: Post execute machcode = e5835000 pc = 14fbc disem=str opclass=33
 382500: system.cpu: Post execute machcode = ebffff8b pc = 14fc0 disem=bl opclass=1
 382500: system.cpu: Post execute a function CALL machcode = ebffff8b pc = 14fc0 currentCallNum is 17
 383000: system.cpu: Post execute machcode = e59f3058 pc = 14df4 disem=ldr opclass=32
 383500: system.cpu: Post execute machcode = 1e92d4030 pc = 14df8 disem=str_uop opclass=33
 384000: system.cpu: Post execute machcode = 1e92d4030 pc = 14df8 disem=str_uop opclass=33
 384500: system.cpu: Post execute machcode = 1e92d4030 pc = 14df8 disem=str_uop opclass=33
 385000: system.cpu: Post execute machcode = 1e92d4030 pc = 14df8 disem=subi_uop opclass=1
 385500: system.cpu: Post execute machcode = e24dd004 pc = 14dfc disem=sub opclass=1
 386000: system.cpu: Post execute machcode = e5935000 pc = 14e00 disem=ldr opclass=32
 386500: system.cpu: Post execute machcode = e3550000 pc = 14e04 disem=cmps opclass=1
 387000: system.cpu: Post execute machcode = a000001 pc = 14e08 disem=b opclass=1
 387500: system.cpu: Post execute machcode = e28dd004 pc = 14e0c disem=add opclass=1
 388000: system.cpu: Post execute machcode = e8bd8030 pc = 14e10 disem=ldr2_uop opclass=32
 388000: system.cpu: ##Encounter an ldm, disem=ldr2_uop opclass=32, src_num=5, dest_num=2
 388000: system.cpu: ### Destregs: 
 388000: system.cpu: 	 4 
 388000: system.cpu: 	 5 
 388500: system.cpu: Post execute machcode = e8bd8030 pc = 14e10 disem=ldr_uop opclass=32
 389000: system.cpu: Post execute machcode = e8bd8030 pc = 14e10 disem=addi_uop opclass=1
 389500: system.cpu: Post execute machcode = e8bd8030 pc = 14e10 disem=uopReg_uop opclass=1
 389500: system.cpu: Post execute a function RETURN machcode = e8bd8030 pc = 14e10 currentRetnNum is 17
 390000: system.cpu: Post execute machcode = 2ebfffdbf pc = 14fc4 disem=bl opclass=1
 390000: system.cpu: Post execute a function CALL machcode = 2ebfffdbf pc = 14fc4 currentCallNum is 18
 390500: system.cpu: Post execute machcode = 3e92d45f0 pc = 146c8 disem=str_uop opclass=33
 391000: system.cpu: Post execute machcode = 3e92d45f0 pc = 146c8 disem=str_uop opclass=33
 391500: system.cpu: Post execute machcode = 3e92d45f0 pc = 146c8 disem=str_uop opclass=33
 392000: system.cpu: Post execute machcode = 3e92d45f0 pc = 146c8 disem=str_uop opclass=33
 392500: system.cpu: Post execute machcode = 3e92d45f0 pc = 146c8 disem=str_uop opclass=33
 393000: system.cpu: Post execute machcode = 3e92d45f0 pc = 146c8 disem=str_uop opclass=33
 393500: system.cpu: Post execute machcode = 3e92d45f0 pc = 146c8 disem=str_uop opclass=33
 394000: system.cpu: Post execute machcode = 3e92d45f0 pc = 146c8 disem=subi_uop opclass=1
 394500: system.cpu: Post execute machcode = 2e59f42bc pc = 146cc disem=ldr opclass=32
 395000: system.cpu: Post execute machcode = e24dd00c pc = 146d0 disem=sub opclass=1
 395500: system.cpu: Post execute machcode = e5943000 pc = 146d4 disem=ldr opclass=32
 396000: system.cpu: Post execute machcode = e3530000 pc = 146d8 disem=cmps opclass=1
 396500: system.cpu: Post execute machcode = a0000a5 pc = 146dc disem=b opclass=1
 397000: system.cpu: Post execute machcode = e59f02ac pc = 146e0 disem=ldr opclass=32
 397500: system.cpu: Post execute machcode = 1eb0016cb pc = 146e4 disem=bl opclass=1
 397500: system.cpu: Post execute a function CALL machcode = 1eb0016cb pc = 146e4 currentCallNum is 19
 398000: system.cpu: Post execute machcode = 3e92d41f0 pc = 1a218 disem=str_uop opclass=33
 398500: system.cpu: Post execute machcode = 3e92d41f0 pc = 1a218 disem=str_uop opclass=33
 399000: system.cpu: Post execute machcode = 3e92d41f0 pc = 1a218 disem=str_uop opclass=33
 399500: system.cpu: Post execute machcode = 3e92d41f0 pc = 1a218 disem=str_uop opclass=33
 400000: system.cpu: Post execute machcode = 3e92d41f0 pc = 1a218 disem=str_uop opclass=33
 400500: system.cpu: Post execute machcode = 3e92d41f0 pc = 1a218 disem=str_uop opclass=33
 401000: system.cpu: Post execute machcode = 3e92d41f0 pc = 1a218 disem=subi_uop opclass=1
 401500: system.cpu: Post execute machcode = e1a05000 pc = 1a21c disem=mov opclass=1
 402000: system.cpu: Post execute machcode = 2ebffddd2 pc = 1a220 disem=bl opclass=1
 402000: system.cpu: Post execute a function CALL machcode = 2ebffddd2 pc = 1a220 currentCallNum is 20
 402500: system.cpu: Post execute machcode = e3c01003 pc = 11970 disem=bic opclass=1
 403000: system.cpu: Post execute machcode = e4912004 pc = 11974 disem=ldr opclass=32
 403500: system.cpu: Post execute machcode = e4912004 pc = 11974 disem=addi_uop opclass=1
 404000: system.cpu: Post execute machcode = e2103003 pc = 11978 disem=ands opclass=1
 404500: system.cpu: Post execute machcode = e2630000 pc = 1197c disem=rsb opclass=1
 405000: system.cpu: Post execute machcode = a000004 pc = 11980 disem=b opclass=1
 405500: system.cpu: Post execute machcode = 2e31200ff pc = 11998 disem=tsts opclass=1
 406000: system.cpu: Post execute machcode = 213120cff pc = 1199c disem=tsts opclass=1
 406500: system.cpu: Post execute machcode = 2131208ff pc = 119a0 disem=tsts opclass=1
 407000: system.cpu: Post execute machcode = 2131204ff pc = 119a4 disem=tsts opclass=1
 407500: system.cpu: Post execute machcode = 12800004 pc = 119a8 disem=add opclass=1
 408000: system.cpu: Post execute machcode = 14912004 pc = 119ac disem=ldr opclass=32
 408500: system.cpu: Post execute machcode = 14912004 pc = 119ac disem=addi_uop opclass=1
 409000: system.cpu: Post execute machcode = 21afffff8 pc = 119b0 disem=b opclass=1
 409500: system.cpu: Post execute machcode = 2e31200ff pc = 11998 disem=tsts opclass=1
 410000: system.cpu: Post execute machcode = 213120cff pc = 1199c disem=tsts opclass=1
 410500: system.cpu: Post execute machcode = 2131208ff pc = 119a0 disem=tsts opclass=1
 411000: system.cpu: Post execute machcode = 2131204ff pc = 119a4 disem=tsts opclass=1
 411500: system.cpu: Post execute machcode = 12800004 pc = 119a8 disem=add opclass=1
 412000: system.cpu: Post execute machcode = 14912004 pc = 119ac disem=ldr opclass=32
 412500: system.cpu: Post execute machcode = 14912004 pc = 119ac disem=addi_uop opclass=1
 413000: system.cpu: Post execute machcode = 21afffff8 pc = 119b0 disem=b opclass=1
 413500: system.cpu: Post execute machcode = 2e31200ff pc = 119b4 disem=tsts opclass=1
 414000: system.cpu: Post execute machcode = 12800001 pc = 119b8 disem=add opclass=1
 414500: system.cpu: Post execute machcode = 213120cff pc = 119bc disem=tsts opclass=1
 415000: system.cpu: Post execute machcode = 12800001 pc = 119c0 disem=add opclass=1
 415500: system.cpu: Post execute machcode = 2131208ff pc = 119c4 disem=tsts opclass=1
 416000: system.cpu: Post execute machcode = 12800001 pc = 119c8 disem=add opclass=1
 416500: system.cpu: Post execute machcode = 1e12fff1e pc = 119cc disem=bx opclass=1
 416500: system.cpu: Post execute a function RETURN machcode = 1e12fff1e pc = 119cc currentRetnNum is 18
 417000: system.cpu: Post execute machcode = e59f3100 pc = 1a224 disem=ldr opclass=32
 417500: system.cpu: Post execute machcode = e5931000 pc = 1a228 disem=ldr opclass=32
 418000: system.cpu: Post execute machcode = e3510000 pc = 1a22c disem=cmps opclass=1
 418500: system.cpu: Post execute machcode = 1a000001 pc = 1a230 disem=b opclass=1
[...]
2838000: system.cpu: Post execute machcode = e3802001 pc = af50 disem=orr opclass=1
2838500: system.cpu: Post execute machcode = e5852000 pc = af54 disem=str opclass=33
2839000: system.cpu: Post execute machcode = e59f2038 pc = af58 disem=ldr opclass=32
2839500: system.cpu: Post execute machcode = e0613003 pc = af5c disem=rsb opclass=1
2840000: system.cpu: Post execute machcode = e5853068 pc = af60 disem=str opclass=33
2840500: system.cpu: Post execute machcode = e5825000 pc = af64 disem=str opclass=33
2841000: system.cpu: Post execute machcode = eaffffc3 pc = af68 disem=b opclass=1
2841500: system.cpu: Post execute machcode = e3a01000 pc = ae7c disem=mov opclass=1
2842000: system.cpu: Post execute machcode = 2e5953098 pc = ae80 disem=ldr opclass=32
2842500: system.cpu: Post execute machcode = e1a00005 pc = ae84 disem=mov opclass=1
2843000: system.cpu: Post execute machcode = e1a02001 pc = ae88 disem=mov opclass=1
2843500: system.cpu: Post execute machcode = e1a0e00f pc = ae8c disem=mov opclass=1
2843500: system.cpu: Post execute a SYSCALL (mov lr pc) machcode = e1a0e00f pc = ae8c currentSyslNum is 34
2844000: system.cpu: Post execute machcode = e593f02c pc = ae90 disem=ldr opclass=32
2844500: system.cpu: Post execute machcode = 1e92d4010 pc = 2a728 disem=str_uop opclass=33
2845000: system.cpu: Post execute machcode = 1e92d4010 pc = 2a728 disem=str_uop opclass=33
2845500: system.cpu: Post execute machcode = 1e92d4010 pc = 2a728 disem=subi_uop opclass=1
2846000: system.cpu: Post execute machcode = e1a04000 pc = 2a72c disem=mov opclass=1
2846500: system.cpu: Post execute machcode = ebff7d7b pc = 2a730 disem=bl opclass=1
2846500: system.cpu: Post execute a function CALL machcode = ebff7d7b pc = 2a730 currentCallNum is 87
2847000: system.cpu: Post execute machcode = 1e92d4070 pc = 9d24 disem=str_uop opclass=33
2847500: system.cpu: Post execute machcode = 1e92d4070 pc = 9d24 disem=str_uop opclass=33
2848000: system.cpu: Post execute machcode = 1e92d4070 pc = 9d24 disem=str_uop opclass=33
2848500: system.cpu: Post execute machcode = 1e92d4070 pc = 9d24 disem=str_uop opclass=33
2849000: system.cpu: Post execute machcode = 1e92d4070 pc = 9d24 disem=subi_uop opclass=1
2849500: system.cpu: Post execute machcode = 2e5903098 pc = 9d28 disem=ldr opclass=32
2850000: system.cpu: Post execute machcode = e1a04000 pc = 9d2c disem=mov opclass=1
2850500: system.cpu: Post execute machcode = e1a05001 pc = 9d30 disem=mov opclass=1
2851000: system.cpu: Post execute machcode = e1a06002 pc = 9d34 disem=mov opclass=1
2851500: system.cpu: Post execute machcode = e1a0e00f pc = 9d38 disem=mov opclass=1
2851500: system.cpu: Post execute a SYSCALL (mov lr pc) machcode = e1a0e00f pc = 9d38 currentSyslNum is 35
2852000: system.cpu: Post execute machcode = e593f030 pc = 9d3c disem=ldr opclass=32
2852500: system.cpu: Post execute machcode = e5902014 pc = 2a0e0 disem=ldr opclass=32
2853000: system.cpu: Post execute machcode = e5901010 pc = 2a0e4 disem=ldr opclass=32
2853500: system.cpu: Post execute machcode = 1e92d4030 pc = 2a0e8 disem=str_uop opclass=33
2854000: system.cpu: Post execute machcode = 1e92d4030 pc = 2a0e8 disem=str_uop opclass=33
2854500: system.cpu: Post execute machcode = 1e92d4030 pc = 2a0e8 disem=str_uop opclass=33
2855000: system.cpu: Post execute machcode = 1e92d4030 pc = 2a0e8 disem=subi_uop opclass=1
2855500: system.cpu: Post execute machcode = e1520001 pc = 2a0ec disem=cmps opclass=1
2856000: system.cpu: Post execute machcode = e24dd00c pc = 2a0f0 disem=sub opclass=1
2856500: system.cpu: Post execute machcode = e1a05000 pc = 2a0f4 disem=mov opclass=1
2857000: system.cpu: Post execute machcode = 8a00001f pc = 2a0f8 disem=b opclass=1
2857500: system.cpu: Post execute machcode = e995000c pc = 2a0fc disem=ldr2_uop opclass=32
2857500: system.cpu: ##Encounter an ldm, disem=ldr2_uop opclass=32, src_num=5, dest_num=2
2857500: system.cpu: ### Destregs: 
2857500: system.cpu: 	 2 
2857500: system.cpu: 	 3 
2858000: system.cpu: Post execute machcode = e0522003 pc = 2a100 disem=subs opclass=1
2858500: system.cpu: Post execute machcode = 1a000006 pc = 2a104 disem=b opclass=1
2859000: system.cpu: Post execute machcode = e3a00000 pc = 2a108 disem=mov opclass=1
2859500: system.cpu: Post execute machcode = e3e03000 pc = 2a10c disem=mvn opclass=1
2860000: system.cpu: Post execute machcode = e3e04000 pc = 2a110 disem=mvn opclass=1
2860500: system.cpu: Post execute machcode = e5853050 pc = 2a114 disem=str opclass=33
2861000: system.cpu: Post execute machcode = e5854054 pc = 2a118 disem=str opclass=33
2861500: system.cpu: Post execute machcode = e28dd00c pc = 2a11c disem=add opclass=1
2862000: system.cpu: Post execute machcode = e8bd8030 pc = 2a120 disem=ldr2_uop opclass=32
2862000: system.cpu: ##Encounter an ldm, disem=ldr2_uop opclass=32, src_num=5, dest_num=2
2862000: system.cpu: ### Destregs: 
2862000: system.cpu: 	 4 
2862000: system.cpu: 	 5 
2862500: system.cpu: Post execute machcode = e8bd8030 pc = 2a120 disem=ldr_uop opclass=32
2863000: system.cpu: Post execute machcode = e8bd8030 pc = 2a120 disem=addi_uop opclass=1
2863500: system.cpu: Post execute machcode = e8bd8030 pc = 2a120 disem=uopReg_uop opclass=1
2863500: system.cpu: Post execute a function RETURN machcode = e8bd8030 pc = 2a120 currentRetnNum is 123
2864000: system.cpu: Post execute machcode = e3700001 pc = 9d40 disem=cmns opclass=1
2864500: system.cpu: Post execute machcode = 3a04000 pc = 9d44 disem=mov opclass=1
2865000: system.cpu: Post execute machcode = a000013 pc = 9d48 disem=b opclass=1
2865500: system.cpu: Post execute machcode = e3560000 pc = 9d4c disem=cmps opclass=1
2866000: system.cpu: Post execute machcode = 13550000 pc = 9d50 disem=cmps opclass=1
2866500: system.cpu: Post execute machcode = 13a00000 pc = 9d54 disem=mov opclass=1
2867000: system.cpu: Post execute machcode = 3a00001 pc = 9d58 disem=mov opclass=1
2867500: system.cpu: Post execute machcode = a000010 pc = 9d5c disem=b opclass=1
2868000: system.cpu: Post execute machcode = e5943000 pc = 9da4 disem=ldr opclass=32
2868500: system.cpu: Post execute machcode = e1a01004 pc = 9da8 disem=mov opclass=1
2869000: system.cpu: Post execute machcode = e3833002 pc = 9dac disem=orr opclass=1
2869500: system.cpu: Post execute machcode = e1a00004 pc = 9db0 disem=mov opclass=1
2870000: system.cpu: Post execute machcode = e4813047 pc = 9db4 disem=str opclass=33
2870500: system.cpu: Post execute machcode = e4813047 pc = 9db4 disem=addi_uop opclass=1
2871000: system.cpu: Post execute machcode = e2842048 pc = 9db8 disem=add opclass=1
2871500: system.cpu: Post execute machcode = e3a03000 pc = 9dbc disem=mov opclass=1
2872000: system.cpu: Post execute machcode = 2ebffffb8 pc = 9dc0 disem=bl opclass=1
2872000: system.cpu: Post execute a function CALL machcode = 2ebffffb8 pc = 9dc0 currentCallNum is 88
2872500: system.cpu: Post execute machcode = e590c01c pc = 9ca8 disem=ldr opclass=32
2873000: system.cpu: Post execute machcode = 3e92d40f0 pc = 9cac disem=str_uop opclass=33
2873500: system.cpu: Post execute machcode = 3e92d40f0 pc = 9cac disem=str_uop opclass=33
2874000: system.cpu: Post execute machcode = 3e92d40f0 pc = 9cac disem=str_uop opclass=33
2874500: system.cpu: Post execute machcode = 3e92d40f0 pc = 9cac disem=str_uop opclass=33
2875000: system.cpu: Post execute machcode = 3e92d40f0 pc = 9cac disem=str_uop opclass=33
2875500: system.cpu: Post execute machcode = 3e92d40f0 pc = 9cac disem=subi_uop opclass=1
2876000: system.cpu: Post execute machcode = e35c0000 pc = 9cb0 disem=cmps opclass=1
2876500: system.cpu: Post execute machcode = e24dd004 pc = 9cb4 disem=sub opclass=1
2877000: system.cpu: Post execute machcode = e1a04000 pc = 9cb8 disem=mov opclass=1
2877500: system.cpu: Post execute machcode = e1a07001 pc = 9cbc disem=mov opclass=1
2878000: system.cpu: Post execute machcode = e1a06002 pc = 9cc0 disem=mov opclass=1
2878500: system.cpu: Post execute machcode = e1a05003 pc = 9cc4 disem=mov opclass=1
2879000: system.cpu: Post execute machcode = a000013 pc = 9cc8 disem=b opclass=1
2879500: system.cpu: Post execute machcode = e5903000 pc = 9ccc disem=ldr opclass=32
2880000: system.cpu: Post execute machcode = e3130001 pc = 9cd0 disem=tsts opclass=1
2880500: system.cpu: Post execute machcode = a000008 pc = 9cd4 disem=b opclass=1
2881000: system.cpu: Post execute machcode = e3550000 pc = 9cd8 disem=cmps opclass=1
2881500: system.cpu: Post execute machcode = 13c33001 pc = 9cdc disem=bic opclass=1
2882000: system.cpu: Post execute machcode = 3833001 pc = 9ce0 disem=orr opclass=1
2882500: system.cpu: Post execute machcode = e584701c pc = 9ce4 disem=str opclass=33
2883000: system.cpu: Post execute machcode = e5846020 pc = 9ce8 disem=str opclass=33
2883500: system.cpu: Post execute machcode = 15843000 pc = 9cec disem=str opclass=33
2884000: system.cpu: Post execute machcode = 5843000 pc = 9cf0 disem=str opclass=33
2884500: system.cpu: Post execute machcode = e28dd004 pc = 9cf4 disem=add opclass=1
2885000: system.cpu: Post execute machcode = 2e8bd80f0 pc = 9cf8 disem=ldr2_uop opclass=32
2885000: system.cpu: ##Encounter an ldm, disem=ldr2_uop opclass=32, src_num=5, dest_num=2
2885000: system.cpu: ### Destregs: 
2885000: system.cpu: 	 4 
2885000: system.cpu: 	 5 
2885500: system.cpu: Post execute machcode = 2e8bd80f0 pc = 9cf8 disem=ldr2_uop opclass=32
2885500: system.cpu: ##Encounter an ldm, disem=ldr2_uop opclass=32, src_num=5, dest_num=2
2885500: system.cpu: ### Destregs: 
2885500: system.cpu: 	 6 
2885500: system.cpu: 	 7 
2886000: system.cpu: Post execute machcode = 2e8bd80f0 pc = 9cf8 disem=ldr_uop opclass=32
2886500: system.cpu: Post execute machcode = 2e8bd80f0 pc = 9cf8 disem=addi_uop opclass=1
2887000: system.cpu: Post execute machcode = 2e8bd80f0 pc = 9cf8 disem=uopReg_uop opclass=1
2887000: system.cpu: Post execute a function RETURN machcode = 2e8bd80f0 pc = 9cf8 currentRetnNum is 124
2887500: system.cpu: Post execute machcode = eaffffed pc = 9dc4 disem=b opclass=1
2888000: system.cpu: Post execute machcode = e3a03000 pc = 9d80 disem=mov opclass=1
2888500: system.cpu: Post execute machcode = e584300c pc = 9d84 disem=str opclass=33
2889000: system.cpu: Post execute machcode = e5843018 pc = 9d88 disem=str opclass=33
2889500: system.cpu: Post execute machcode = e5843014 pc = 9d8c disem=str opclass=33
2890000: system.cpu: Post execute machcode = e5843010 pc = 9d90 disem=str opclass=33
2890500: system.cpu: Post execute machcode = e5843008 pc = 9d94 disem=str opclass=33
2891000: system.cpu: Post execute machcode = e5843004 pc = 9d98 disem=str opclass=33
2891500: system.cpu: Post execute machcode = e1a00004 pc = 9d9c disem=mov opclass=1
2892000: system.cpu: Post execute machcode = e8bd8070 pc = 9da0 disem=ldr2_uop opclass=32
2892000: system.cpu: ##Encounter an ldm, disem=ldr2_uop opclass=32, src_num=5, dest_num=2
2892000: system.cpu: ### Destregs: 
2892000: system.cpu: 	 4 
2892000: system.cpu: 	 5 
2892500: system.cpu: Post execute machcode = e8bd8070 pc = 9da0 disem=ldr2_uop opclass=32
2892500: system.cpu: ##Encounter an ldm, disem=ldr2_uop opclass=32, src_num=5, dest_num=2
2892500: system.cpu: ### Destregs: 
2892500: system.cpu: 	 6 
2892500: system.cpu: 	 36 
2893000: system.cpu: Post execute machcode = e8bd8070 pc = 9da0 disem=addi_uop opclass=1
2893500: system.cpu: Post execute machcode = e8bd8070 pc = 9da0 disem=uopReg_uop opclass=1
2893500: system.cpu: Post execute a function RETURN machcode = e8bd8070 pc = 9da0 currentRetnNum is 125
2894000: system.cpu: Post execute machcode = e3500000 pc = 2a734 disem=cmps opclass=1
2894500: system.cpu: Post execute machcode = 1a04000 pc = 2a738 disem=mov opclass=1
2895000: system.cpu: Post execute machcode = 1594301c pc = 2a73c disem=ldr opclass=32
2895500: system.cpu: Post execute machcode = e1a00004 pc = 2a740 disem=mov opclass=1
2896000: system.cpu: Post execute machcode = 15843008 pc = 2a744 disem=str opclass=33
2896500: system.cpu: Post execute machcode = 15843018 pc = 2a748 disem=str opclass=33
2897000: system.cpu: Post execute machcode = 15843014 pc = 2a74c disem=str opclass=33
2897500: system.cpu: Post execute machcode = 15843010 pc = 2a750 disem=str opclass=33
2898000: system.cpu: Post execute machcode = 1584300c pc = 2a754 disem=str opclass=33
2898500: system.cpu: Post execute machcode = 15843004 pc = 2a758 disem=str opclass=33
2899000: system.cpu: Post execute machcode = e8bd8010 pc = 2a75c disem=ldr2_uop opclass=32
2899000: system.cpu: ##Encounter an ldm, disem=ldr2_uop opclass=32, src_num=5, dest_num=2
2899000: system.cpu: ### Destregs: 
2899000: system.cpu: 	 4 
2899000: system.cpu: 	 36 
2899500: system.cpu: Post execute machcode = e8bd8010 pc = 2a75c disem=addi_uop opclass=1
2900000: system.cpu: Post execute machcode = e8bd8010 pc = 2a75c disem=uopReg_uop opclass=1
2900000: system.cpu: Post execute a function RETURN machcode = e8bd8010 pc = 2a75c currentRetnNum is 126
2900500: system.cpu: Post execute machcode = e3540002 pc = ae94 disem=cmps opclass=1
2901000: system.cpu: Post execute machcode = 1a000006 pc = ae98 disem=b opclass=1
2901500: system.cpu: Post execute machcode = e5956048 pc = aeb8 disem=ldr opclass=32
2902000: system.cpu: Post execute machcode = e5963004 pc = aebc disem=ldr opclass=32
2902500: system.cpu: Post execute machcode = e2433001 pc = aec0 disem=sub opclass=1
2903000: system.cpu: Post execute machcode = e3530000 pc = aec4 disem=cmps opclass=1
2903500: system.cpu: Post execute machcode = e5863004 pc = aec8 disem=str opclass=33
2904000: system.cpu: Post execute machcode = 21afffff2 pc = aecc disem=b opclass=1
2904500: system.cpu: Post execute machcode = e5863008 pc = aed0 disem=str opclass=33
2905000: system.cpu: Post execute machcode = e5967000 pc = aed4 disem=ldr opclass=32
2905500: system.cpu: Post execute machcode = e3a01000 pc = aed8 disem=mov opclass=1
2906000: system.cpu: Post execute machcode = e1a02006 pc = aedc disem=mov opclass=1
2906500: system.cpu: Post execute machcode = e1a04007 pc = aee0 disem=mov opclass=1
2907000: system.cpu: Post execute machcode = e5923000 pc = aee4 disem=ldr opclass=32
2907500: system.cpu: Post execute machcode = e1530004 pc = aee8 disem=cmps opclass=1
2908000: system.cpu: Post execute machcode = 1a000005 pc = aeec disem=b opclass=1
2908500: system.cpu: Post execute machcode = e1a00004 pc = aef0 disem=mov opclass=1
2909000: system.cpu: Post execute machcode = e3e03a0f pc = aef4 disem=mvn opclass=1
2909500: system.cpu: Post execute machcode = e1a0e00f pc = aef8 disem=mov opclass=1
2909500: system.cpu: Post execute a SYSCALL (mov lr pc) machcode = e1a0e00f pc = aef8 currentSyslNum is 36
2910000: system.cpu: Post execute machcode = e243f03f pc = aefc disem=sub opclass=1
2910500: system.cpu: Post execute machcode = 2e1923f9f pc = ffff0fc0 disem=ldrex opclass=32
2911000: system.cpu: Post execute machcode = e0533000 pc = ffff0fc4 disem=subs opclass=1
2911500: system.cpu: Post execute machcode = 201823f91 pc = ffff0fc8 disem=strex opclass=33
2912000: system.cpu: Post execute machcode = 3330001 pc = ffff0fcc disem=teqs opclass=1
2912500: system.cpu: Post execute machcode = 20afffffa pc = ffff0fd0 disem=b opclass=1
2913000: system.cpu: Post execute machcode = e2730000 pc = ffff0fd4 disem=rsbs opclass=1
2913500: system.cpu: Post execute machcode = f57ff05f pc = ffff0fd8 disem=dmb opclass=1
2914000: system.cpu: Post execute machcode = e1a0f00e pc = ffff0fdc disem=mov opclass=1
2914000: system.cpu: Post execute a function RETURN machcode = e1a0f00e pc = ffff0fdc currentRetnNum is 127
2914500: system.cpu: Post execute machcode = 23afffff7 pc = af00 disem=b opclass=1
2915000: system.cpu: Post execute machcode = e1a03004 pc = af04 disem=mov opclass=1
2915500: system.cpu: Post execute machcode = e1570003 pc = af08 disem=cmps opclass=1
2916000: system.cpu: Post execute machcode = 21afffff0 pc = af0c disem=b opclass=1
2916500: system.cpu: Post execute machcode = e3570001 pc = af10 disem=cmps opclass=1
2917000: system.cpu: Post execute machcode = daffffe0 pc = af14 disem=b opclass=1
2917500: system.cpu: Post execute machcode = e585806c pc = ae9c disem=str opclass=33
2918000: system.cpu: Post execute machcode = e5955034 pc = aea0 disem=ldr opclass=32
2918500: system.cpu: Post execute machcode = e3550000 pc = aea4 disem=cmps opclass=1
2919000: system.cpu: Post execute machcode = 21affffb9 pc = aea8 disem=b opclass=1
2919500: system.cpu: Post execute machcode = e5952000 pc = ad94 disem=ldr opclass=32
2920000: system.cpu: Post execute machcode = e2121002 pc = ad98 disem=ands opclass=1
2920500: system.cpu: Post execute machcode = 1a00003e pc = ad9c disem=b opclass=1
2921000: system.cpu: Post execute machcode = e59f31ec pc = ada0 disem=ldr opclass=32
2921500: system.cpu: Post execute machcode = e0023003 pc = ada4 disem=and opclass=1
2922000: system.cpu: Post execute machcode = e3530008 pc = ada8 disem=cmps opclass=1
2922500: system.cpu: Post execute machcode = a00003a pc = adac disem=b opclass=1
2923000: system.cpu: Post execute machcode = e585806c pc = ae9c disem=str opclass=33
2923500: system.cpu: Post execute machcode = e5955034 pc = aea0 disem=ldr opclass=32
2924000: system.cpu: Post execute machcode = e3550000 pc = aea4 disem=cmps opclass=1
2924500: system.cpu: Post execute machcode = 21affffb9 pc = aea8 disem=b opclass=1
2925000: system.cpu: Post execute machcode = e1a00009 pc = aeac disem=mov opclass=1
2925500: system.cpu: Post execute machcode = e28dd004 pc = aeb0 disem=add opclass=1
2926000: system.cpu: Post execute machcode = 2e8bd8ff0 pc = aeb4 disem=ldr2_uop opclass=32
2926000: system.cpu: ##Encounter an ldm, disem=ldr2_uop opclass=32, src_num=5, dest_num=2
2926000: system.cpu: ### Destregs: 
2926000: system.cpu: 	 4 
2926000: system.cpu: 	 5 
2926500: system.cpu: Post execute machcode = 2e8bd8ff0 pc = aeb4 disem=ldr2_uop opclass=32
2926500: system.cpu: ##Encounter an ldm, disem=ldr2_uop opclass=32, src_num=5, dest_num=2
2926500: system.cpu: ### Destregs: 
2926500: system.cpu: 	 6 
2926500: system.cpu: 	 7 
2927000: system.cpu: Post execute machcode = 2e8bd8ff0 pc = aeb4 disem=ldr2_uop opclass=32
2927000: system.cpu: ##Encounter an ldm, disem=ldr2_uop opclass=32, src_num=5, dest_num=2
2927000: system.cpu: ### Destregs: 
2927000: system.cpu: 	 8 
2927000: system.cpu: 	 9 
2927500: system.cpu: Post execute machcode = 2e8bd8ff0 pc = aeb4 disem=ldr2_uop opclass=32
2927500: system.cpu: ##Encounter an ldm, disem=ldr2_uop opclass=32, src_num=5, dest_num=2
2927500: system.cpu: ### Destregs: 
2927500: system.cpu: 	 10 
2927500: system.cpu: 	 11 
2928000: system.cpu: Post execute machcode = 2e8bd8ff0 pc = aeb4 disem=ldr_uop opclass=32
2928500: system.cpu: Post execute machcode = 2e8bd8ff0 pc = aeb4 disem=addi_uop opclass=1
2929000: system.cpu: Post execute machcode = 2e8bd8ff0 pc = aeb4 disem=uopReg_uop opclass=1
2929000: system.cpu: Post execute a function RETURN machcode = 2e8bd8ff0 pc = aeb4 currentRetnNum is 128
2929500: system.cpu: Post execute machcode = e1560004 pc = 8da4 disem=cmps opclass=1
2930000: system.cpu: Post execute machcode = 28afffffb pc = 8da8 disem=b opclass=1
2930500: system.cpu: Post execute machcode = e1a00005 pc = 8dac disem=mov opclass=1
2931000: system.cpu: Post execute machcode = 1eb00271b pc = 8db0 disem=bl opclass=1
2931000: system.cpu: Post execute a function CALL machcode = 1eb00271b pc = 8db0 currentCallNum is 89
2931500: system.cpu: Post execute machcode = e59f4070 pc = 12a24 disem=ldr opclass=32
2932000: system.cpu: Post execute machcode = e59f5070 pc = 12a28 disem=ldr opclass=32
2932500: system.cpu: Post execute machcode = e1a01000 pc = 12a2c disem=mov opclass=1
2933000: system.cpu: Post execute machcode = ea000004 pc = 12a30 disem=b opclass=1
2933500: system.cpu: Post execute machcode = e1a00001 pc = 12a48 disem=mov opclass=1
2934000: system.cpu: Post execute machcode = 2e3a070f8 pc = 12a4c disem=mov opclass=1
2934500: system.cpu: Post execute machcode = 1ef000000 pc = 12a50 disem=svc opclass=1
Exiting @ tick 2934500 because exiting with last active thread context
