gem5 Simulator System.  http://gem5.org
gem5 is copyrighted software; use the --copyright option for details.

gem5 compiled Apr 15 2018 15:09:55
gem5 started Apr 15 2018 15:57:22
gem5 executing on ubuntu, pid 22316
command line: ../build/ARM/gem5.opt --debug-flag=SimpleCallReturn --outdir=../Output/atomic/simple_test ../configs/example/se.py --cmd=../tests/test-progs/simple_test/bin/simple_empty_main --cpu-type=AtomicSimpleCPU

Global frequency set at 1000000000000 ticks per second
**** REAL SIMULATION ****
      0: system.cpu: Post execute machcode = e3a0b000 pc = 1044c
    500: system.cpu: Post execute machcode = e3a0e000 pc = 10450
   1000: system.cpu: Post execute machcode = e49d1004 pc = 10454
   1500: system.cpu: Post execute machcode = e49d1004 pc = 10454
   2000: system.cpu: Post execute machcode = e1a0200d pc = 10458
   2500: system.cpu: Post execute machcode = 1e52d2004 pc = 1045c
   3000: system.cpu: Post execute machcode = 1e52d2004 pc = 1045c
   3500: system.cpu: Post execute machcode = 1e52d0004 pc = 10460
   4000: system.cpu: Post execute machcode = 1e52d0004 pc = 10460
   4500: system.cpu: Post execute machcode = e59fc010 pc = 10464
   5000: system.cpu: Post execute machcode = 1e52dc004 pc = 10468
   5500: system.cpu: Post execute machcode = 1e52dc004 pc = 10468
   6000: system.cpu: Post execute machcode = e59f000c pc = 1046c
   6500: system.cpu: Post execute machcode = e59f300c pc = 10470
   7000: system.cpu: Post execute a function CALL machcode = 1eb000055 pc = 10474 currentCallNum is 1
   7500: system.cpu: Post execute machcode = e59fc310 pc = 105d0
   8000: system.cpu: Post execute machcode = 3e92d41f0 pc = 105d4
   8500: system.cpu: Post execute machcode = 3e92d41f0 pc = 105d4
   9000: system.cpu: Post execute machcode = 3e92d41f0 pc = 105d4
   9500: system.cpu: Post execute machcode = 3e92d41f0 pc = 105d4
  10000: system.cpu: Post execute machcode = 3e92d41f0 pc = 105d4
  10500: system.cpu: Post execute machcode = 3e92d41f0 pc = 105d4
  11000: system.cpu: Post execute machcode = 3e92d41f0 pc = 105d4
  11500: system.cpu: Post execute machcode = e35c0000 pc = 105d8
  12000: system.cpu: Post execute machcode = e1a05003 pc = 105dc
  12500: system.cpu: Post execute machcode = 159c3000 pc = 105e0
  13000: system.cpu: Post execute machcode = 1a0300c pc = 105e4
  13500: system.cpu: Post execute machcode = 1116f3f13 pc = 105e8
  14000: system.cpu: Post execute machcode = e24ddf4a pc = 105ec
  14500: system.cpu: Post execute machcode = e98d0006 pc = 105f0
  15000: system.cpu: Post execute machcode = e98d0006 pc = 105f0
  15500: system.cpu: Post execute machcode = e59d2004 pc = 105f4
  16000: system.cpu: Post execute machcode = e59de008 pc = 105f8
  16500: system.cpu: Post execute machcode = e58d000c pc = 105fc
  17000: system.cpu: Post execute machcode = e2820001 pc = 10600
  17500: system.cpu: Post execute machcode = e59f22e0 pc = 10604
  18000: system.cpu: Post execute machcode = e08e0100 pc = 10608
  18500: system.cpu: Post execute machcode = e5820000 pc = 1060c
  19000: system.cpu: Post execute machcode = e59d1148 pc = 10610
  19500: system.cpu: Post execute machcode = 2e59fc2d4 pc = 10614
  20000: system.cpu: Post execute machcode = 2e59f22d4 pc = 10618
  20500: system.cpu: Post execute machcode = 11a032a3 pc = 1061c
  21000: system.cpu: Post execute machcode = e58c3000 pc = 10620
  21500: system.cpu: Post execute machcode = e5821000 pc = 10624
  22000: system.cpu: Post execute machcode = e4903004 pc = 10628
  22500: system.cpu: Post execute machcode = e4903004 pc = 10628
  23000: system.cpu: Post execute machcode = e3530000 pc = 1062c
  23500: system.cpu: Post execute machcode = 21afffffc pc = 10630
  24000: system.cpu: Post execute a function CALL machcode = 1eb00666d pc = 10634 currentCallNum is 2
  24500: system.cpu: Post execute machcode = e5903000 pc = 29ff0
  25000: system.cpu: Post execute machcode = e59f2384 pc = 29ff4
  25500: system.cpu: Post execute machcode = e3530000 pc = 29ff8
  26000: system.cpu: Post execute machcode = e5820000 pc = 29ffc
  26500: system.cpu: Post execute a function RETURN machcode = 1012fff1e pc = 2a000 currentRetnNum is 1
  27000: system.cpu: Post execute machcode = e3a02000 pc = 2a004
  27500: system.cpu: Post execute machcode = 3e92d4ff0 pc = 2a008
  28000: system.cpu: Post execute machcode = 3e92d4ff0 pc = 2a008
  28500: system.cpu: Post execute machcode = 3e92d4ff0 pc = 2a008
  29000: system.cpu: Post execute machcode = 3e92d4ff0 pc = 2a008
  29500: system.cpu: Post execute machcode = 3e92d4ff0 pc = 2a008
  30000: system.cpu: Post execute machcode = 3e92d4ff0 pc = 2a008
  30500: system.cpu: Post execute machcode = 3e92d4ff0 pc = 2a008
  31000: system.cpu: Post execute machcode = 3e92d4ff0 pc = 2a008
  31500: system.cpu: Post execute machcode = 3e92d4ff0 pc = 2a008
  32000: system.cpu: Post execute machcode = 3e92d4ff0 pc = 2a008
  32500: system.cpu: Post execute machcode = e59f9370 pc = 2a00c
  33000: system.cpu: Post execute machcode = e1a06002 pc = 2a010
  33500: system.cpu: Post execute machcode = e599a000 pc = 2a014
  34000: system.cpu: Post execute machcode = e59f9368 pc = 2a018
  34500: system.cpu: Post execute machcode = e1a05002 pc = 2a01c
  35000: system.cpu: Post execute machcode = e5999000 pc = 2a020
  35500: system.cpu: Post execute machcode = e1a04002 pc = 2a024
  36000: system.cpu: Post execute machcode = e1a01002 pc = 2a028
  36500: system.cpu: Post execute machcode = e3a0c001 pc = 2a02c
  37000: system.cpu: Post execute machcode = e24dd05c pc = 2a030
  37500: system.cpu: Post execute machcode = e58d9004 pc = 2a034
  38000: system.cpu: Post execute machcode = e59f934c pc = 2a038
  38500: system.cpu: Post execute machcode = e59fe34c pc = 2a03c
  39000: system.cpu: Post execute machcode = e5999000 pc = 2a040
  39500: system.cpu: Post execute machcode = e59f8348 pc = 2a044
  40000: system.cpu: Post execute machcode = e58d900c pc = 2a048
  40500: system.cpu: Post execute machcode = e59f9344 pc = 2a04c
  41000: system.cpu: Post execute machcode = e58d2044 pc = 2a050
  41500: system.cpu: Post execute machcode = e5999000 pc = 2a054
  42000: system.cpu: Post execute machcode = e58d2040 pc = 2a058
  42500: system.cpu: Post execute machcode = e58d9010 pc = 2a05c
  43000: system.cpu: Post execute machcode = e59f9334 pc = 2a060
  43500: system.cpu: Post execute machcode = e58d2038 pc = 2a064
  44000: system.cpu: Post execute machcode = e5999000 pc = 2a068
  44500: system.cpu: Post execute machcode = e58d2030 pc = 2a06c
  45000: system.cpu: Post execute machcode = e58d901c pc = 2a070
  45500: system.cpu: Post execute machcode = e59e9000 pc = 2a074
  46000: system.cpu: Post execute machcode = e58d2028 pc = 2a078
  46500: system.cpu: Post execute machcode = e58d9048 pc = 2a07c
  47000: system.cpu: Post execute machcode = e59e9004 pc = 2a080
  47500: system.cpu: Post execute machcode = e58d2024 pc = 2a084
  48000: system.cpu: Post execute machcode = e58d904c pc = 2a088
  48500: system.cpu: Post execute machcode = e59e9008 pc = 2a08c
  49000: system.cpu: Post execute machcode = e58d2020 pc = 2a090
  49500: system.cpu: Post execute machcode = e58d9050 pc = 2a094
  50000: system.cpu: Post execute machcode = e59e900c pc = 2a098
  50500: system.cpu: Post execute machcode = e58d2018 pc = 2a09c
  51000: system.cpu: Post execute machcode = e58d9054 pc = 2a0a0
  51500: system.cpu: Post execute machcode = e59e9010 pc = 2a0a4
  52000: system.cpu: Post execute machcode = e58d2014 pc = 2a0a8
  52500: system.cpu: Post execute machcode = e58d902c pc = 2a0ac
  53000: system.cpu: Post execute machcode = e59f92e8 pc = 2a0b0
  53500: system.cpu: Post execute machcode = e58d2008 pc = 2a0b4
  54000: system.cpu: Post execute machcode = e5999000 pc = 2a0b8
  54500: system.cpu: Post execute machcode = e59f72e0 pc = 2a0bc
  55000: system.cpu: Post execute machcode = e58d9034 pc = 2a0c0
  55500: system.cpu: Post execute machcode = 2e59fb2dc pc = 2a0c4
  56000: system.cpu: Post execute machcode = e5989000 pc = 2a0c8
  56500: system.cpu: Post execute machcode = e59bb000 pc = 2a0cc
  57000: system.cpu: Post execute machcode = e58d903c pc = 2a0d0
  57500: system.cpu: Post execute machcode = e5979000 pc = 2a0d4
  58000: system.cpu: Post execute machcode = e2433003 pc = 2a0d8
  58500: system.cpu: Post execute machcode = e353001e pc = 2a0dc
  59000: system.cpu: Post execute machcode = 979ff103 pc = 2a0e0
  59500: system.cpu: Post execute machcode = e5903004 pc = 2a2e4
  60000: system.cpu: Post execute machcode = e58dc024 pc = 2a2e8
  60500: system.cpu: Post execute machcode = e58d3048 pc = 2a2ec
  61000: system.cpu: Post execute machcode = e3a03000 pc = 2a2f0
  61500: system.cpu: Post execute machcode = e58d304c pc = 2a2f4
  62000: system.cpu: Post execute machcode = 2eaffff9c pc = 2a2f8
  62500: system.cpu: Post execute machcode = e5b03008 pc = 2a170
  63000: system.cpu: Post execute machcode = e5b03008 pc = 2a170
  63500: system.cpu: Post execute machcode = e3530000 pc = 2a174
  64000: system.cpu: Post execute machcode = 21affffd6 pc = 2a178
  64500: system.cpu: Post execute machcode = e2433003 pc = 2a0d8
  65000: system.cpu: Post execute machcode = e353001e pc = 2a0dc
  65500: system.cpu: Post execute machcode = 979ff103 pc = 2a0e0
  66000: system.cpu: Post execute machcode = e5903004 pc = 2a2d8
  66500: system.cpu: Post execute machcode = e98d1008 pc = 2a2dc
  67000: system.cpu: Post execute machcode = e98d1008 pc = 2a2dc
  67500: system.cpu: Post execute machcode = eaffffa2 pc = 2a2e0
  68000: system.cpu: Post execute machcode = e5b03008 pc = 2a170
  68500: system.cpu: Post execute machcode = e5b03008 pc = 2a170
  69000: system.cpu: Post execute machcode = e3530000 pc = 2a174
  69500: system.cpu: Post execute machcode = 21affffd6 pc = 2a178
  70000: system.cpu: Post execute machcode = e2433003 pc = 2a0d8
  70500: system.cpu: Post execute machcode = e353001e pc = 2a0dc
  71000: system.cpu: Post execute machcode = 979ff103 pc = 2a0e0
  71500: system.cpu: Post execute machcode = e3a09001 pc = 2a2ac
  72000: system.cpu: Post execute machcode = e5903004 pc = 2a2b0
  72500: system.cpu: Post execute machcode = e58d9040 pc = 2a2b4
  73000: system.cpu: Post execute machcode = e58d303c pc = 2a2b8
  73500: system.cpu: Post execute machcode = e58dc044 pc = 2a2bc
  74000: system.cpu: Post execute machcode = e3e01000 pc = 2a2c0
  74500: system.cpu: Post execute machcode = eaffffa9 pc = 2a2c4
  75000: system.cpu: Post execute machcode = e5b03008 pc = 2a170
  75500: system.cpu: Post execute machcode = e5b03008 pc = 2a170
  76000: system.cpu: Post execute machcode = e3530000 pc = 2a174
  76500: system.cpu: Post execute machcode = 21affffd6 pc = 2a178
  77000: system.cpu: Post execute machcode = e2433003 pc = 2a0d8
  77500: system.cpu: Post execute machcode = e353001e pc = 2a0dc
  78000: system.cpu: Post execute machcode = 979ff103 pc = 2a0e0
  78500: system.cpu: Post execute machcode = e5903004 pc = 2a29c
  79000: system.cpu: Post execute machcode = e1a0200c pc = 2a2a0
  79500: system.cpu: Post execute machcode = e1a0b003 pc = 2a2a4
  80000: system.cpu: Post execute machcode = 2eaffffb0 pc = 2a2a8
  80500: system.cpu: Post execute machcode = e5b03008 pc = 2a170
  81000: system.cpu: Post execute machcode = e5b03008 pc = 2a170
  81500: system.cpu: Post execute machcode = e3530000 pc = 2a174
  82000: system.cpu: Post execute machcode = 21affffd6 pc = 2a178
  82500: system.cpu: Post execute machcode = e2433003 pc = 2a0d8
  83000: system.cpu: Post execute machcode = e353001e pc = 2a0dc
  83500: system.cpu: Post execute machcode = 979ff103 pc = 2a0e0
  84000: system.cpu: Post execute machcode = e5b03008 pc = 2a170
  84500: system.cpu: Post execute machcode = e5b03008 pc = 2a170
  85000: system.cpu: Post execute machcode = e3530000 pc = 2a174
  85500: system.cpu: Post execute machcode = 21affffd6 pc = 2a178
  86000: system.cpu: Post execute machcode = e2433003 pc = 2a0d8
  86500: system.cpu: Post execute machcode = e353001e pc = 2a0dc
  87000: system.cpu: Post execute machcode = 979ff103 pc = 2a0e0
  87500: system.cpu: Post execute machcode = e5903004 pc = 2a2fc
  88000: system.cpu: Post execute machcode = e58dc020 pc = 2a300
  88500: system.cpu: Post execute machcode = e58d301c pc = 2a304
  89000: system.cpu: Post execute machcode = 2eaffff98 pc = 2a308
  89500: system.cpu: Post execute machcode = e5b03008 pc = 2a170
  90000: system.cpu: Post execute machcode = e5b03008 pc = 2a170
  90500: system.cpu: Post execute machcode = e3530000 pc = 2a174
  91000: system.cpu: Post execute machcode = 21affffd6 pc = 2a178
  91500: system.cpu: Post execute machcode = e2433003 pc = 2a0d8
  92000: system.cpu: Post execute machcode = e353001e pc = 2a0dc
  92500: system.cpu: Post execute machcode = 979ff103 pc = 2a0e0
  93000: system.cpu: Post execute machcode = e5903004 pc = 2a34c
  93500: system.cpu: Post execute machcode = e3530000 pc = 2a350
  94000: system.cpu: Post execute machcode = 11a0a003 pc = 2a354
  94500: system.cpu: Post execute machcode = 13a06001 pc = 2a358
  95000: system.cpu: Post execute machcode = eaffff83 pc = 2a35c
  95500: system.cpu: Post execute machcode = e5b03008 pc = 2a170
  96000: system.cpu: Post execute machcode = e5b03008 pc = 2a170
  96500: system.cpu: Post execute machcode = e3530000 pc = 2a174
  97000: system.cpu: Post execute machcode = 21affffd6 pc = 2a178
  97500: system.cpu: Post execute machcode = e2433003 pc = 2a0d8
  98000: system.cpu: Post execute machcode = e353001e pc = 2a0dc
  98500: system.cpu: Post execute machcode = 979ff103 pc = 2a0e0
  99000: system.cpu: Post execute machcode = e5903004 pc = 2a360
  99500: system.cpu: Post execute machcode = e58dc014 pc = 2a364
 100000: system.cpu: Post execute machcode = e58d300c pc = 2a368
 100500: system.cpu: Post execute machcode = eaffff7f pc = 2a36c
 101000: system.cpu: Post execute machcode = e5b03008 pc = 2a170
 101500: system.cpu: Post execute machcode = e5b03008 pc = 2a170
 102000: system.cpu: Post execute machcode = e3530000 pc = 2a174
 102500: system.cpu: Post execute machcode = 21affffd6 pc = 2a178
 103000: system.cpu: Post execute machcode = e2433003 pc = 2a0d8
 103500: system.cpu: Post execute machcode = e353001e pc = 2a0dc
 104000: system.cpu: Post execute machcode = 979ff103 pc = 2a0e0
 104500: system.cpu: Post execute machcode = e5b03008 pc = 2a170
 105000: system.cpu: Post execute machcode = e5b03008 pc = 2a170
 105500: system.cpu: Post execute machcode = e3530000 pc = 2a174
 106000: system.cpu: Post execute machcode = 21affffd6 pc = 2a178
 106500: system.cpu: Post execute machcode = e2433003 pc = 2a0d8
 107000: system.cpu: Post execute machcode = e353001e pc = 2a0dc
 107500: system.cpu: Post execute machcode = 979ff103 pc = 2a0e0
 108000: system.cpu: Post execute machcode = e5903004 pc = 2a370
 108500: system.cpu: Post execute machcode = e58dc018 pc = 2a374
 109000: system.cpu: Post execute machcode = e58d3010 pc = 2a378
 109500: system.cpu: Post execute machcode = eaffff7b pc = 2a37c
 110000: system.cpu: Post execute machcode = e5b03008 pc = 2a170
 110500: system.cpu: Post execute machcode = e5b03008 pc = 2a170
 111000: system.cpu: Post execute machcode = e3530000 pc = 2a174
 111500: system.cpu: Post execute machcode = 21affffd6 pc = 2a178
 112000: system.cpu: Post execute machcode = e2433003 pc = 2a0d8
 112500: system.cpu: Post execute machcode = e353001e pc = 2a0dc
 113000: system.cpu: Post execute machcode = 979ff103 pc = 2a0e0
 113500: system.cpu: Post execute machcode = e5b03008 pc = 2a170
 114000: system.cpu: Post execute machcode = e5b03008 pc = 2a170
 114500: system.cpu: Post execute machcode = e3530000 pc = 2a174
 115000: system.cpu: Post execute machcode = 21affffd6 pc = 2a178
 115500: system.cpu: Post execute machcode = e2433003 pc = 2a0d8
 116000: system.cpu: Post execute machcode = e353001e pc = 2a0dc
 116500: system.cpu: Post execute machcode = 979ff103 pc = 2a0e0
 117000: system.cpu: Post execute machcode = e5b03008 pc = 2a170
 117500: system.cpu: Post execute machcode = e5b03008 pc = 2a170
 118000: system.cpu: Post execute machcode = e3530000 pc = 2a174
 118500: system.cpu: Post execute machcode = 21affffd6 pc = 2a178
 119000: system.cpu: Post execute machcode = e2433003 pc = 2a0d8
 119500: system.cpu: Post execute machcode = e353001e pc = 2a0dc
 120000: system.cpu: Post execute machcode = 979ff103 pc = 2a0e0
 120500: system.cpu: Post execute machcode = e5b03008 pc = 2a170
 121000: system.cpu: Post execute machcode = e5b03008 pc = 2a170
 121500: system.cpu: Post execute machcode = e3530000 pc = 2a174
 122000: system.cpu: Post execute machcode = 21affffd6 pc = 2a178
 122500: system.cpu: Post execute machcode = e2433003 pc = 2a0d8
 123000: system.cpu: Post execute machcode = e353001e pc = 2a0dc
 123500: system.cpu: Post execute machcode = 979ff103 pc = 2a0e0
 124000: system.cpu: Post execute machcode = e5903004 pc = 2a33c
 124500: system.cpu: Post execute machcode = e3811001 pc = 2a340
 125000: system.cpu: Post execute machcode = e0244003 pc = 2a344
 125500: system.cpu: Post execute machcode = eaffff88 pc = 2a348
 126000: system.cpu: Post execute machcode = e5b03008 pc = 2a170
 126500: system.cpu: Post execute machcode = e5b03008 pc = 2a170
 127000: system.cpu: Post execute machcode = e3530000 pc = 2a174
 127500: system.cpu: Post execute machcode = 21affffd6 pc = 2a178
 128000: system.cpu: Post execute machcode = e2433003 pc = 2a0d8
 128500: system.cpu: Post execute machcode = e353001e pc = 2a0dc
 129000: system.cpu: Post execute machcode = 979ff103 pc = 2a0e0
 129500: system.cpu: Post execute machcode = e5903004 pc = 2a32c
 130000: system.cpu: Post execute machcode = e3811002 pc = 2a330
 130500: system.cpu: Post execute machcode = e0244003 pc = 2a334
 131000: system.cpu: Post execute machcode = eaffff8c pc = 2a338
 131500: system.cpu: Post execute machcode = e5b03008 pc = 2a170
 132000: system.cpu: Post execute machcode = e5b03008 pc = 2a170
 132500: system.cpu: Post execute machcode = e3530000 pc = 2a174
 133000: system.cpu: Post execute machcode = 21affffd6 pc = 2a178
 133500: system.cpu: Post execute machcode = e2433003 pc = 2a0d8
 134000: system.cpu: Post execute machcode = e353001e pc = 2a0dc
 134500: system.cpu: Post execute machcode = 979ff103 pc = 2a0e0
 135000: system.cpu: Post execute machcode = e5903004 pc = 2a31c
 135500: system.cpu: Post execute machcode = e3811004 pc = 2a320
 136000: system.cpu: Post execute machcode = e0255003 pc = 2a324
 136500: system.cpu: Post execute machcode = 2eaffff90 pc = 2a328
 137000: system.cpu: Post execute machcode = e5b03008 pc = 2a170
 137500: system.cpu: Post execute machcode = e5b03008 pc = 2a170
 138000: system.cpu: Post execute machcode = e3530000 pc = 2a174
 138500: system.cpu: Post execute machcode = 21affffd6 pc = 2a178
 139000: system.cpu: Post execute machcode = e2433003 pc = 2a0d8
 139500: system.cpu: Post execute machcode = e353001e pc = 2a0dc
 140000: system.cpu: Post execute machcode = 979ff103 pc = 2a0e0
 140500: system.cpu: Post execute machcode = e5903004 pc = 2a30c
 141000: system.cpu: Post execute machcode = e3811008 pc = 2a310
 141500: system.cpu: Post execute machcode = e0255003 pc = 2a314
 142000: system.cpu: Post execute machcode = 2eaffff94 pc = 2a318
 142500: system.cpu: Post execute machcode = e5b03008 pc = 2a170
 143000: system.cpu: Post execute machcode = e5b03008 pc = 2a170
 143500: system.cpu: Post execute machcode = e3530000 pc = 2a174
 144000: system.cpu: Post execute machcode = 21affffd6 pc = 2a178
 144500: system.cpu: Post execute machcode = e3560000 pc = 2a17c
 145000: system.cpu: Post execute machcode = 2159f31fc pc = 2a180
 145500: system.cpu: Post execute machcode = 1583a000 pc = 2a184
 146000: system.cpu: Post execute machcode = e59d3008 pc = 2a188
 146500: system.cpu: Post execute machcode = e3530000 pc = 2a18c
 147000: system.cpu: Post execute machcode = 159d0004 pc = 2a190
 147500: system.cpu: Post execute machcode = 159f31ec pc = 2a194
 148000: system.cpu: Post execute machcode = 15830000 pc = 2a198
 148500: system.cpu: Post execute machcode = e59d3014 pc = 2a19c
 149000: system.cpu: Post execute machcode = e3530000 pc = 2a1a0
 149500: system.cpu: Post execute machcode = 159d000c pc = 2a1a4
 150000: system.cpu: Post execute machcode = 2159f31dc pc = 2a1a8
 150500: system.cpu: Post execute machcode = 15830000 pc = 2a1ac
 151000: system.cpu: Post execute machcode = e59d3018 pc = 2a1b0
 151500: system.cpu: Post execute machcode = e3530000 pc = 2a1b4
 152000: system.cpu: Post execute machcode = 159d0010 pc = 2a1b8
 152500: system.cpu: Post execute machcode = 2159f31d4 pc = 2a1bc
 153000: system.cpu: Post execute machcode = 15830000 pc = 2a1c0
 153500: system.cpu: Post execute machcode = e59d3020 pc = 2a1c4
 154000: system.cpu: Post execute machcode = e3530000 pc = 2a1c8
 154500: system.cpu: Post execute machcode = 159d001c pc = 2a1cc
 155000: system.cpu: Post execute machcode = 159f31c4 pc = 2a1d0
 155500: system.cpu: Post execute machcode = 15830000 pc = 2a1d4
 156000: system.cpu: Post execute machcode = e59d3024 pc = 2a1d8
 156500: system.cpu: Post execute machcode = e3530000 pc = 2a1dc
 157000: system.cpu: Post execute machcode = 159d3048 pc = 2a1e0
 157500: system.cpu: Post execute machcode = 158e3000 pc = 2a1e4
 158000: system.cpu: Post execute machcode = 159d304c pc = 2a1e8
 158500: system.cpu: Post execute machcode = 158e3004 pc = 2a1ec
 159000: system.cpu: Post execute machcode = e59d3028 pc = 2a1f0
 159500: system.cpu: Post execute machcode = e3530000 pc = 2a1f4
 160000: system.cpu: Post execute machcode = 159d3050 pc = 2a1f8
 160500: system.cpu: Post execute machcode = 158e3008 pc = 2a1fc
 161000: system.cpu: Post execute machcode = 159d3054 pc = 2a200
 161500: system.cpu: Post execute machcode = 158e300c pc = 2a204
 162000: system.cpu: Post execute machcode = e59d3030 pc = 2a208
 162500: system.cpu: Post execute machcode = e3530000 pc = 2a20c
 163000: system.cpu: Post execute machcode = 159d302c pc = 2a210
 163500: system.cpu: Post execute machcode = 158e3010 pc = 2a214
 164000: system.cpu: Post execute machcode = e59d3038 pc = 2a218
 164500: system.cpu: Post execute machcode = e3530000 pc = 2a21c
 165000: system.cpu: Post execute machcode = 159f3178 pc = 2a220
 165500: system.cpu: Post execute machcode = 159d0034 pc = 2a224
 166000: system.cpu: Post execute machcode = 15830000 pc = 2a228
 166500: system.cpu: Post execute machcode = e59d3040 pc = 2a22c
 167000: system.cpu: Post execute machcode = e3530000 pc = 2a230
 167500: system.cpu: Post execute machcode = 159d303c pc = 2a234
 168000: system.cpu: Post execute machcode = 15883000 pc = 2a238
 168500: system.cpu: Post execute machcode = e59d3044 pc = 2a23c
 169000: system.cpu: Post execute machcode = e3530000 pc = 2a240
 169500: system.cpu: Post execute machcode = 15879000 pc = 2a244
 170000: system.cpu: Post execute machcode = e3520000 pc = 2a248
 170500: system.cpu: Post execute machcode = 11a0200b pc = 2a24c
 171000: system.cpu: Post execute machcode = 159f3150 pc = 2a250
 171500: system.cpu: Post execute machcode = 15832000 pc = 2a254
 172000: system.cpu: Post execute machcode = e351000f pc = 2a258
 172500: system.cpu: Post execute machcode = 1a000006 pc = 2a25c
 173000: system.cpu: Post execute machcode = e28dd05c pc = 2a27c
 173500: system.cpu: Post execute machcode = 2e8bd8ff0 pc = 2a280
 174000: system.cpu: Post execute machcode = 2e8bd8ff0 pc = 2a280
 174500: system.cpu: Post execute machcode = 2e8bd8ff0 pc = 2a280
 175000: system.cpu: Post execute machcode = 2e8bd8ff0 pc = 2a280
 175500: system.cpu: Post execute machcode = 2e8bd8ff0 pc = 2a280
 176000: system.cpu: Post execute machcode = 2e8bd8ff0 pc = 2a280
 176500: system.cpu: Post execute a function RETURN machcode = 2e8bd8ff0 pc = 2a280 currentRetnNum is 2
 177000: system.cpu: Post execute machcode = 2e59f32b8 pc = 10638
 177500: system.cpu: Post execute machcode = 2e59f22b8 pc = 1063c
 178000: system.cpu: Post execute machcode = e5933000 pc = 10640
 178500: system.cpu: Post execute machcode = e3520000 pc = 10644
 179000: system.cpu: Post execute machcode = 1e16f3f13 pc = 10648
 179500: system.cpu: Post execute machcode = e3a01001 pc = 1064c
 180000: system.cpu: Post execute machcode = 1a01002 pc = 10650
 180500: system.cpu: Post execute machcode = e1a032a3 pc = 10654
 181000: system.cpu: Post execute machcode = e1130001 pc = 10658
 181500: system.cpu: Post execute machcode = a00000f pc = 1065c
 182000: system.cpu: Post execute machcode = e59f3248 pc = 106a0
 182500: system.cpu: Post execute machcode = e5933000 pc = 106a4
 183000: system.cpu: Post execute machcode = e3530000 pc = 106a8
 183500: system.cpu: Post execute machcode = a000018 pc = 106ac
 184000: system.cpu: Post execute a function CALL machcode = 1eb006a56 pc = 10714 currentCallNum is 3
 184500: system.cpu: Post execute machcode = 1e92d4030 pc = 2b074
 185000: system.cpu: Post execute machcode = 1e92d4030 pc = 2b074
 185500: system.cpu: Post execute machcode = 1e92d4030 pc = 2b074
 186000: system.cpu: Post execute machcode = 1e92d4030 pc = 2b074
 186500: system.cpu: Post execute machcode = e24ddf73 pc = 2b078
 187000: system.cpu: Post execute machcode = e28d0040 pc = 2b07c
 187500: system.cpu: Post execute a function CALL machcode = 1eb008a1a pc = 2b080 currentCallNum is 4
 188000: system.cpu: Post execute machcode = 1e52d7004 pc = 4d8f0
 188500: system.cpu: Post execute machcode = 1e52d7004 pc = 4d8f0
 189000: system.cpu: Post execute machcode = e3a0707a pc = 4d8f4
 189500: system.cpu: Post execute machcode = 1ef000000 pc = 4d8f8
 190000: system.cpu: Post execute machcode = e49d7004 pc = 4d8fc
 190500: system.cpu: Post execute machcode = e49d7004 pc = 4d8fc
 191000: system.cpu: Post execute machcode = e3700a01 pc = 4d900
 191500: system.cpu: Post execute a function RETURN machcode = 1312fff1e pc = 4d904 currentRetnNum is 3
 192000: system.cpu: Post execute machcode = e3500000 pc = 2b084
 192500: system.cpu: Post execute machcode = 28d10c2 pc = 2b088
 193000: system.cpu: Post execute machcode = 1a000023 pc = 2b08c
 193500: system.cpu: Post execute machcode = e3a04000 pc = 2b090
 194000: system.cpu: Post execute machcode = e1a00004 pc = 2b094
 194500: system.cpu: Post execute machcode = e5d13000 pc = 2b098
 195000: system.cpu: Post execute machcode = e2433030 pc = 2b09c
 195500: system.cpu: Post execute machcode = 2e20320ff pc = 2b0a0
 196000: system.cpu: Post execute machcode = e3520009 pc = 2b0a4
 196500: system.cpu: Post execute machcode = 8a000017 pc = 2b0a8
 197000: system.cpu: Post execute machcode = e5d1c001 pc = 2b0ac
 197500: system.cpu: Post execute machcode = e2811001 pc = 2b0b0
 198000: system.cpu: Post execute machcode = e24c2030 pc = 2b0b4
 198500: system.cpu: Post execute machcode = 2e202e0ff pc = 2b0b8
 199000: system.cpu: Post execute machcode = e35e0009 pc = 2b0bc
 199500: system.cpu: Post execute machcode = 8a000006 pc = 2b0c0
 200000: system.cpu: Post execute machcode = e35c002e pc = 2b0e0
 200500: system.cpu: Post execute machcode = e2844001 pc = 2b0e4
 201000: system.cpu: Post execute machcode = e1830400 pc = 2b0e8
 201500: system.cpu: Post execute machcode = e2811001 pc = 2b0ec
 202000: system.cpu: Post execute machcode = 1a000003 pc = 2b0f0
 202500: system.cpu: Post execute machcode = e3540003 pc = 2b0f4
 203000: system.cpu: Post execute machcode = 1affffe6 pc = 2b0f8
 203500: system.cpu: Post execute machcode = e5d13000 pc = 2b098
 204000: system.cpu: Post execute machcode = e2433030 pc = 2b09c
 204500: system.cpu: Post execute machcode = 2e20320ff pc = 2b0a0
 205000: system.cpu: Post execute machcode = e3520009 pc = 2b0a4
 205500: system.cpu: Post execute machcode = 8a000017 pc = 2b0a8
 206000: system.cpu: Post execute machcode = e5d1c001 pc = 2b0ac
 206500: system.cpu: Post execute machcode = e2811001 pc = 2b0b0
 207000: system.cpu: Post execute machcode = e24c2030 pc = 2b0b4
 207500: system.cpu: Post execute machcode = 2e202e0ff pc = 2b0b8
 208000: system.cpu: Post execute machcode = e35e0009 pc = 2b0bc
 208500: system.cpu: Post execute machcode = 8a000006 pc = 2b0c0
 209000: system.cpu: Post execute machcode = e35c002e pc = 2b0e0
 209500: system.cpu: Post execute machcode = e2844001 pc = 2b0e4
 210000: system.cpu: Post execute machcode = e1830400 pc = 2b0e8
 210500: system.cpu: Post execute machcode = e2811001 pc = 2b0ec
 211000: system.cpu: Post execute machcode = 1a000003 pc = 2b0f0
 211500: system.cpu: Post execute machcode = e3540003 pc = 2b0f4
 212000: system.cpu: Post execute machcode = 1affffe6 pc = 2b0f8
 212500: system.cpu: Post execute machcode = e5d13000 pc = 2b098
 213000: system.cpu: Post execute machcode = e2433030 pc = 2b09c
 213500: system.cpu: Post execute machcode = 2e20320ff pc = 2b0a0
 214000: system.cpu: Post execute machcode = e3520009 pc = 2b0a4
 214500: system.cpu: Post execute machcode = 8a000017 pc = 2b0a8
 215000: system.cpu: Post execute machcode = e5d1c001 pc = 2b0ac
 215500: system.cpu: Post execute machcode = e2811001 pc = 2b0b0
 216000: system.cpu: Post execute machcode = e24c2030 pc = 2b0b4
 216500: system.cpu: Post execute machcode = 2e202e0ff pc = 2b0b8
 217000: system.cpu: Post execute machcode = e35e0009 pc = 2b0bc
 217500: system.cpu: Post execute machcode = 8a000006 pc = 2b0c0
 218000: system.cpu: Post execute machcode = e35c002e pc = 2b0e0
 218500: system.cpu: Post execute machcode = e2844001 pc = 2b0e4
 219000: system.cpu: Post execute machcode = e1830400 pc = 2b0e8
 219500: system.cpu: Post execute machcode = e2811001 pc = 2b0ec
 220000: system.cpu: Post execute machcode = 1a000003 pc = 2b0f0
 220500: system.cpu: Post execute machcode = e3540003 pc = 2b104
 221000: system.cpu: Post execute machcode = 20afffffb pc = 2b108
 221500: system.cpu: Post execute machcode = e28ddf73 pc = 2b0fc
 222000: system.cpu: Post execute machcode = e8bd8030 pc = 2b100
 222500: system.cpu: Post execute machcode = e8bd8030 pc = 2b100
 223000: system.cpu: Post execute machcode = e8bd8030 pc = 2b100
 223500: system.cpu: Post execute a function RETURN machcode = e8bd8030 pc = 2b100 currentRetnNum is 4
 224000: system.cpu: Post execute machcode = e3500000 pc = 10718
 224500: system.cpu: Post execute machcode = ba00006d pc = 1071c
 225000: system.cpu: Post execute machcode = 2e59f31f8 pc = 10720
 225500: system.cpu: Post execute machcode = e5933000 pc = 10724
 226000: system.cpu: Post execute machcode = e3530000 pc = 10728
 226500: system.cpu: Post execute machcode = 1a00004d pc = 1072c
 227000: system.cpu: Post execute machcode = e59f31e8 pc = 10730
 227500: system.cpu: Post execute machcode = e5830000 pc = 10734
 228000: system.cpu: Post execute machcode = e59f31e4 pc = 10738
 228500: system.cpu: Post execute machcode = e1500003 pc = 1073c
 229000: system.cpu: Post execute machcode = 2caffffda pc = 10740
 229500: system.cpu: Post execute machcode = e59f4258 pc = 106b0
 230000: system.cpu: Post execute machcode = e59f2258 pc = 106b4
 230500: system.cpu: Post execute machcode = e1540002 pc = 106b8
 231000: system.cpu: Post execute machcode = 2a000022 pc = 106bc
 231500: system.cpu: Post execute a function CALL machcode = 1eb000169 pc = 1074c currentCallNum is 5
 232000: system.cpu: Post execute machcode = e3a01010 pc = 10cf8
 232500: system.cpu: Post execute machcode = e3a00008 pc = 10cfc
 233000: system.cpu: Post execute machcode = eaffff59 pc = 10d00
 233500: system.cpu: Post execute machcode = 3e92d4ff0 pc = 10a6c
 234000: system.cpu: Post execute machcode = 3e92d4ff0 pc = 10a6c
 234500: system.cpu: Post execute machcode = 3e92d4ff0 pc = 10a6c
 235000: system.cpu: Post execute machcode = 3e92d4ff0 pc = 10a6c
 235500: system.cpu: Post execute machcode = 3e92d4ff0 pc = 10a6c
 236000: system.cpu: Post execute machcode = 3e92d4ff0 pc = 10a6c
 236500: system.cpu: Post execute machcode = 3e92d4ff0 pc = 10a6c
 237000: system.cpu: Post execute machcode = 3e92d4ff0 pc = 10a6c
 237500: system.cpu: Post execute machcode = 3e92d4ff0 pc = 10a6c
 238000: system.cpu: Post execute machcode = 3e92d4ff0 pc = 10a6c
 238500: system.cpu: Post execute machcode = 2e59f31d4 pc = 10a70
 239000: system.cpu: Post execute machcode = e24dd014 pc = 10a74
 239500: system.cpu: Post execute machcode = e5934000 pc = 10a78
 240000: system.cpu: Post execute machcode = e1a06001 pc = 10a7c
 240500: system.cpu: Post execute machcode = e3540000 pc = 10a80
 241000: system.cpu: Post execute machcode = a00001c pc = 10a84
 241500: system.cpu: Post execute machcode = e59f31c0 pc = 10a88
 242000: system.cpu: Post execute machcode = e5932000 pc = 10a8c
 242500: system.cpu: Post execute machcode = e0842282 pc = 10a90
 243000: system.cpu: Post execute machcode = e1520004 pc = 10a94
 243500: system.cpu: Post execute machcode = 8a000003 pc = 10a98
 244000: system.cpu: Post execute machcode = e5943000 pc = 10aac
 244500: system.cpu: Post execute machcode = e3530007 pc = 10ab0
 245000: system.cpu: Post execute machcode = 21afffff9 pc = 10ab4
 245500: system.cpu: Post execute machcode = e2844020 pc = 10aa0
 246000: system.cpu: Post execute machcode = e1520004 pc = 10aa4
 246500: system.cpu: Post execute machcode = 9a000012 pc = 10aa8
 247000: system.cpu: Post execute machcode = e5943000 pc = 10aac
 247500: system.cpu: Post execute machcode = e3530007 pc = 10ab0
 248000: system.cpu: Post execute machcode = 21afffff9 pc = 10ab4
 248500: system.cpu: Post execute machcode = e2844020 pc = 10aa0
 249000: system.cpu: Post execute machcode = e1520004 pc = 10aa4
 249500: system.cpu: Post execute machcode = 9a000012 pc = 10aa8
 250000: system.cpu: Post execute machcode = e5943000 pc = 10aac
 250500: system.cpu: Post execute machcode = e3530007 pc = 10ab0
 251000: system.cpu: Post execute machcode = 21afffff9 pc = 10ab4
 251500: system.cpu: Post execute machcode = e2844020 pc = 10aa0
 252000: system.cpu: Post execute machcode = e1520004 pc = 10aa4
 252500: system.cpu: Post execute machcode = 9a000012 pc = 10aa8
 253000: system.cpu: Post execute machcode = e5943000 pc = 10aac
 253500: system.cpu: Post execute machcode = e3530007 pc = 10ab0
 254000: system.cpu: Post execute machcode = 21afffff9 pc = 10ab4
 254500: system.cpu: Post execute machcode = e2844020 pc = 10aa0
 255000: system.cpu: Post execute machcode = e1520004 pc = 10aa4
 255500: system.cpu: Post execute machcode = 9a000012 pc = 10aa8
 256000: system.cpu: Post execute machcode = e5943000 pc = 10aac
 256500: system.cpu: Post execute machcode = e3530007 pc = 10ab0
 257000: system.cpu: Post execute machcode = 21afffff9 pc = 10ab4
 257500: system.cpu: Post execute machcode = e594901c pc = 10ab8
 258000: system.cpu: Post execute machcode = e5943014 pc = 10abc
 258500: system.cpu: Post execute machcode = e1560009 pc = 10ac0
 259000: system.cpu: Post execute machcode = e58d3004 pc = 10ac4
 259500: system.cpu: Post execute machcode = e5943010 pc = 10ac8
 260000: system.cpu: Post execute machcode = 31a06009 pc = 10acc
 260500: system.cpu: Post execute machcode = e3590000 pc = 10ad0
 261000: system.cpu: Post execute machcode = e58d3008 pc = 10ad4
 261500: system.cpu: Post execute machcode = e5944008 pc = 10ad8
 262000: system.cpu: Post execute machcode = a000008 pc = 10adc
 262500: system.cpu: Post execute machcode = e2493001 pc = 10ae0
 263000: system.cpu: Post execute machcode = e0830000 pc = 10ae4
 263500: system.cpu: Post execute machcode = e1a01009 pc = 10ae8
 264000: system.cpu: Post execute a function CALL machcode = 1eb017382 pc = 10aec currentCallNum is 6
 264500: system.cpu: Post execute machcode = e2512001 pc = 6d8fc
 265000: system.cpu: Post execute a function RETURN machcode = 1012fff1e pc = 6d900 currentRetnNum is 5
 265500: system.cpu: Post execute machcode = 3a000074 pc = 6d904
 266000: system.cpu: Post execute machcode = e1500001 pc = 6d908
 266500: system.cpu: Post execute machcode = 9a00006b pc = 6d90c
 267000: system.cpu: Post execute machcode = e1110002 pc = 6d910
 267500: system.cpu: Post execute machcode = a00006c pc = 6d914
 268000: system.cpu: Post execute machcode = 1e16f2f11 pc = 6dacc
 268500: system.cpu: Post execute machcode = e262201f pc = 6dad0
 269000: system.cpu: Post execute machcode = e1a00230 pc = 6dad4
 269500: system.cpu: Post execute a function RETURN machcode = 1e12fff1e pc = 6dad8 currentRetnNum is 6
 270000: system.cpu: Post execute machcode = e1a05009 pc = 10af0
 270500: system.cpu: Post execute machcode = ea000004 pc = 10af4
 271000: system.cpu: Post execute machcode = e59fb140 pc = 10b0c
 271500: system.cpu: Post execute machcode = 2e0050590 pc = 10b10
 272000: system.cpu: Post execute machcode = e59b0000 pc = 10b14
 272500: system.cpu: Post execute machcode = e59d3004 pc = 10b18
 273000: system.cpu: Post execute machcode = e2800d13 pc = 10b1c
 273500: system.cpu: Post execute machcode = e0800003 pc = 10b20
 274000: system.cpu: Post execute machcode = e0800006 pc = 10b24
 274500: system.cpu: Post execute machcode = e0800005 pc = 10b28
 275000: system.cpu: Post execute a function CALL machcode = 1eb005e66 pc = 10b2c currentCallNum is 7
 275500: system.cpu: Post execute machcode = 1e92d4070 pc = 284cc
 276000: system.cpu: Post execute machcode = 1e92d4070 pc = 284cc
 276500: system.cpu: Post execute machcode = 1e92d4070 pc = 284cc
 277000: system.cpu: Post execute machcode = 1e92d4070 pc = 284cc
 277500: system.cpu: Post execute machcode = 1e92d4070 pc = 284cc
 278000: system.cpu: Post execute machcode = e59f60a8 pc = 284d0
 278500: system.cpu: Post execute machcode = e1a05000 pc = 284d4
 279000: system.cpu: Post execute machcode = e5964000 pc = 284d8
 279500: system.cpu: Post execute machcode = e3540000 pc = 284dc
 280000: system.cpu: Post execute machcode = a000013 pc = 284e0
 280500: system.cpu: Post execute machcode = e3a00000 pc = 28534
 281000: system.cpu: Post execute a function CALL machcode = 1eb0095c2 pc = 28538 currentCallNum is 8
 281500: system.cpu: Post execute machcode = 1e92d4080 pc = 4dc48
 282000: system.cpu: Post execute machcode = 1e92d4080 pc = 4dc48
 282500: system.cpu: Post execute machcode = 1e92d4080 pc = 4dc48
 283000: system.cpu: Post execute machcode = e1a02000 pc = 4dc4c
 283500: system.cpu: Post execute machcode = e3a0702d pc = 4dc50
 284000: system.cpu: Post execute machcode = 1ef000000 pc = 4dc54
 284500: system.cpu: Post execute machcode = e3700a01 pc = 4dc58
 285000: system.cpu: Post execute machcode = e1a03000 pc = 4dc5c
 285500: system.cpu: Post execute machcode = 8a000006 pc = 4dc60
 286000: system.cpu: Post execute machcode = e59f105c pc = 4dc64
 286500: system.cpu: Post execute machcode = e1520000 pc = 4dc68
 287000: system.cpu: Post execute machcode = e5810000 pc = 4dc6c
 287500: system.cpu: Post execute machcode = 93a03000 pc = 4dc70
 288000: system.cpu: Post execute machcode = 8a00000c pc = 4dc74
 288500: system.cpu: Post execute machcode = e1a00003 pc = 4dc78
 289000: system.cpu: Post execute machcode = e8bd8080 pc = 4dc7c
 289500: system.cpu: Post execute machcode = e8bd8080 pc = 4dc7c
 290000: system.cpu: Post execute a function RETURN machcode = e8bd8080 pc = 4dc7c currentRetnNum is 7
 290500: system.cpu: Post execute machcode = e3500000 pc = 2853c
 291000: system.cpu: Post execute machcode = a5964000 pc = 28540
 291500: system.cpu: Post execute machcode = aaffffea pc = 28544
 292000: system.cpu: Post execute machcode = e3550000 pc = 284f4
 292500: system.cpu: Post execute machcode = a00000b pc = 284f8
 293000: system.cpu: Post execute machcode = da00001a pc = 284fc
 293500: system.cpu: Post execute machcode = e1740005 pc = 28500
 294000: system.cpu: Post execute machcode = 23a03001 pc = 28504
 294500: system.cpu: Post execute machcode = 33a03000 pc = 28508
 295000: system.cpu: Post execute machcode = e3530000 pc = 2850c
 295500: system.cpu: Post execute machcode = a00000f pc = 28510
 296000: system.cpu: Post execute machcode = e0840005 pc = 28554
 296500: system.cpu: Post execute a function CALL machcode = 3eb0095ba pc = 28558 currentCallNum is 9
 297000: system.cpu: Post execute machcode = 1e92d4080 pc = 4dc48
 297500: system.cpu: Post execute machcode = 1e92d4080 pc = 4dc48
 298000: system.cpu: Post execute machcode = 1e92d4080 pc = 4dc48
 298500: system.cpu: Post execute machcode = e1a02000 pc = 4dc4c
 299000: system.cpu: Post execute machcode = e3a0702d pc = 4dc50
 299500: system.cpu: Post execute machcode = 1ef000000 pc = 4dc54
 300000: system.cpu: Post execute machcode = e3700a01 pc = 4dc58
 300500: system.cpu: Post execute machcode = e1a03000 pc = 4dc5c
 301000: system.cpu: Post execute machcode = 8a000006 pc = 4dc60
 301500: system.cpu: Post execute machcode = e59f105c pc = 4dc64
 302000: system.cpu: Post execute machcode = e1520000 pc = 4dc68
 302500: system.cpu: Post execute machcode = e5810000 pc = 4dc6c
 303000: system.cpu: Post execute machcode = 93a03000 pc = 4dc70
 303500: system.cpu: Post execute machcode = 8a00000c pc = 4dc74
 304000: system.cpu: Post execute machcode = e1a00003 pc = 4dc78
 304500: system.cpu: Post execute machcode = e8bd8080 pc = 4dc7c
 305000: system.cpu: Post execute machcode = e8bd8080 pc = 4dc7c
 305500: system.cpu: Post execute a function RETURN machcode = e8bd8080 pc = 4dc7c currentRetnNum is 8
 306000: system.cpu: Post execute machcode = e3500000 pc = 2855c
 306500: system.cpu: Post execute machcode = 2bafffff8 pc = 28560
 307000: system.cpu: Post execute machcode = e1a00004 pc = 28564
 307500: system.cpu: Post execute machcode = e8bd8070 pc = 28568
 308000: system.cpu: Post execute machcode = e8bd8070 pc = 28568
 308500: system.cpu: Post execute machcode = e8bd8070 pc = 28568
 309000: system.cpu: Post execute a function RETURN machcode = e8bd8070 pc = 28568 currentRetnNum is 9
 309500: system.cpu: Post execute machcode = e3a0a001 pc = 10b30
 310000: system.cpu: Post execute machcode = e3a0c03e pc = 10b34
 310500: system.cpu: Post execute machcode = e2463001 pc = 10b38
 311000: system.cpu: Post execute machcode = e59f1114 pc = 10b3c
 311500: system.cpu: Post execute machcode = e2800d13 pc = 10b40
 312000: system.cpu: Post execute machcode = e0800003 pc = 10b44
 312500: system.cpu: Post execute machcode = e2663000 pc = 10b48
 313000: system.cpu: Post execute machcode = e0033000 pc = 10b4c
 313500: system.cpu: Post execute machcode = e5918000 pc = 10b50
 314000: system.cpu: Post execute machcode = e59f7100 pc = 10b54
 314500: system.cpu: Post execute machcode = e0831005 pc = 10b58
 315000: system.cpu: Post execute machcode = e5871010 pc = 10b5c
 315500: system.cpu: Post execute machcode = e587c000 pc = 10b60
 316000: system.cpu: Post execute machcode = e5c7a014 pc = 10b64
 316500: system.cpu: Post execute machcode = e1a00001 pc = 10b68
 317000: system.cpu: Post execute machcode = e588523c pc = 10b6c
 317500: system.cpu: Post execute machcode = e59d2008 pc = 10b70
 318000: system.cpu: Post execute machcode = e1a01004 pc = 10b74
 318500: system.cpu: Post execute machcode = e58d300c pc = 10b78
 319000: system.cpu: Post execute a function CALL machcode = 3eb0056bb pc = 10b7c currentCallNum is 10
 319500: system.cpu: Post execute machcode = 1e92d4011 pc = 26670
 320000: system.cpu: Post execute machcode = 1e92d4011 pc = 26670
 320500: system.cpu: Post execute machcode = 1e92d4011 pc = 26670
 321000: system.cpu: Post execute machcode = 1e92d4011 pc = 26670
 321500: system.cpu: Post execute machcode = e2522004 pc = 26674
 322000: system.cpu: Post execute machcode = ba000021 pc = 26678
 322500: system.cpu: Post execute machcode = e210c003 pc = 2667c
 323000: system.cpu: Post execute machcode = 1a000027 pc = 26680
 323500: system.cpu: Post execute machcode = e211c003 pc = 26684
 324000: system.cpu: Post execute machcode = 1a000031 pc = 26688
 324500: system.cpu: Post execute machcode = e252201c pc = 2668c
 325000: system.cpu: Post execute machcode = 1e92d01e0 pc = 26690
 325500: system.cpu: Post execute machcode = 1e92d01e0 pc = 26690
 326000: system.cpu: Post execute machcode = 1e92d01e0 pc = 26690
 326500: system.cpu: Post execute machcode = 1e92d01e0 pc = 26690
 327000: system.cpu: Post execute machcode = 1e92d01e0 pc = 26690
 327500: system.cpu: Post execute machcode = ba000003 pc = 26694
 328000: system.cpu: Post execute machcode = e212c01c pc = 266a8
 328500: system.cpu: Post execute machcode = e26cc020 pc = 266ac
 329000: system.cpu: Post execute machcode = 108ff00c pc = 266b0
 329500: system.cpu: Post execute machcode = e4916004 pc = 266c8
 330000: system.cpu: Post execute machcode = e4916004 pc = 266c8
 330500: system.cpu: Post execute machcode = e4917004 pc = 266cc
 331000: system.cpu: Post execute machcode = e4917004 pc = 266cc
 331500: system.cpu: Post execute machcode = e4918004 pc = 266d0
 332000: system.cpu: Post execute machcode = e4918004 pc = 266d0
 332500: system.cpu: Post execute machcode = e491e004 pc = 266d4
 333000: system.cpu: Post execute machcode = e491e004 pc = 266d4
 333500: system.cpu: Post execute machcode = e08ff00c pc = 266d8
 334000: system.cpu: Post execute machcode = e4806004 pc = 266f0
 334500: system.cpu: Post execute machcode = e4806004 pc = 266f0
 335000: system.cpu: Post execute machcode = e4807004 pc = 266f4
 335500: system.cpu: Post execute machcode = e4807004 pc = 266f4
 336000: system.cpu: Post execute machcode = e4808004 pc = 266f8
 336500: system.cpu: Post execute machcode = e4808004 pc = 266f8
 337000: system.cpu: Post execute machcode = e480e004 pc = 266fc
 337500: system.cpu: Post execute machcode = e480e004 pc = 266fc
 338000: system.cpu: Post execute machcode = e8bd01e0 pc = 26700
 338500: system.cpu: Post execute machcode = e8bd01e0 pc = 26700
 339000: system.cpu: Post execute machcode = e8bd01e0 pc = 26700
 339500: system.cpu: Post execute machcode = e1b02f82 pc = 26704
 340000: system.cpu: Post execute machcode = 14d13001 pc = 26708
 340500: system.cpu: Post execute machcode = 14d13001 pc = 26708
 341000: system.cpu: Post execute machcode = 24d14001 pc = 2670c
 341500: system.cpu: Post execute machcode = 24d14001 pc = 2670c
 342000: system.cpu: Post execute machcode = 25d1c000 pc = 26710
 342500: system.cpu: Post execute machcode = 14c03001 pc = 26714
 343000: system.cpu: Post execute machcode = 14c03001 pc = 26714
 343500: system.cpu: Post execute machcode = 24c04001 pc = 26718
 344000: system.cpu: Post execute machcode = 24c04001 pc = 26718
 344500: system.cpu: Post execute machcode = 25c0c000 pc = 2671c
 345000: system.cpu: Post execute machcode = e8bd8011 pc = 26720
 345500: system.cpu: Post execute machcode = e8bd8011 pc = 26720
 346000: system.cpu: Post execute machcode = e8bd8011 pc = 26720
 346500: system.cpu: Post execute a function RETURN machcode = e8bd8011 pc = 26720 currentRetnNum is 10
 347000: system.cpu: Post execute machcode = e59d300c pc = 10b80
 347500: system.cpu: Post execute machcode = e2877008 pc = 10b84
 348000: system.cpu: Post execute machcode = e5837000 pc = 10b88
 348500: system.cpu: Post execute machcode = e1a00003 pc = 10b8c
 349000: system.cpu: Post execute machcode = e59f70c8 pc = 10b90
 349500: system.cpu: Post execute machcode = 1ef000000 pc = 10b94
 350000: system.cpu: Post execute machcode = e3700a01 pc = 10b98
 350500: system.cpu: Post execute machcode = 9a000001 pc = 10b9c
 351000: system.cpu: Post execute machcode = e3a02040 pc = 10ba8
 351500: system.cpu: Post execute machcode = 2e59f30b4 pc = 10bac
 352000: system.cpu: Post execute machcode = e59d1008 pc = 10bb0
 352500: system.cpu: Post execute machcode = e59d0004 pc = 10bb4
 353000: system.cpu: Post execute machcode = e588122c pc = 10bb8
 353500: system.cpu: Post execute machcode = e5832000 pc = 10bbc
 354000: system.cpu: Post execute machcode = e59f10a4 pc = 10bc0
 354500: system.cpu: Post execute machcode = e59f20a4 pc = 10bc4
 355000: system.cpu: Post execute machcode = e3590000 pc = 10bc8
 355500: system.cpu: Post execute machcode = e5889234 pc = 10bcc
 356000: system.cpu: Post execute machcode = e5880230 pc = 10bd0
 356500: system.cpu: Post execute machcode = e5884228 pc = 10bd4
 357000: system.cpu: Post execute machcode = e588a240 pc = 10bd8
 357500: system.cpu: Post execute machcode = e5838014 pc = 10bdc
 358000: system.cpu: Post execute machcode = e5813000 pc = 10be0
 358500: system.cpu: Post execute machcode = e582a000 pc = 10be4
 359000: system.cpu: Post execute machcode = 1a0900a pc = 10be8
 359500: system.cpu: Post execute machcode = 1a000010 pc = 10bec
 360000: system.cpu: Post execute machcode = e59d3004 pc = 10c34
 360500: system.cpu: Post execute machcode = e1a01009 pc = 10c38
 361000: system.cpu: Post execute machcode = e0830009 pc = 10c3c
 361500: system.cpu: Post execute machcode = e2400001 pc = 10c40
 362000: system.cpu: Post execute a function CALL machcode = 1eb01732c pc = 10c44 currentCallNum is 11
 362500: system.cpu: Post execute machcode = e2512001 pc = 6d8fc
 363000: system.cpu: Post execute a function RETURN machcode = 1012fff1e pc = 6d900 currentRetnNum is 11
 363500: system.cpu: Post execute machcode = 3a000074 pc = 6d904
 364000: system.cpu: Post execute machcode = e1500001 pc = 6d908
 364500: system.cpu: Post execute machcode = 9a00006b pc = 6d90c
 365000: system.cpu: Post execute machcode = e1110002 pc = 6d910
 365500: system.cpu: Post execute machcode = a00006c pc = 6d914
 366000: system.cpu: Post execute machcode = 1e16f2f11 pc = 6dacc
 366500: system.cpu: Post execute machcode = e262201f pc = 6dad0
 367000: system.cpu: Post execute machcode = e1a00230 pc = 6dad4
 367500: system.cpu: Post execute a function RETURN machcode = 1e12fff1e pc = 6dad8 currentRetnNum is 12
 368000: system.cpu: Post execute machcode = eaffffe8 pc = 10c48
 368500: system.cpu: Post execute machcode = e3560010 pc = 10bf0
 369000: system.cpu: Post execute machcode = 33a06010 pc = 10bf4
 369500: system.cpu: Post execute machcode = e3a01001 pc = 10bf8
 370000: system.cpu: Post execute machcode = 2e0255990 pc = 10bfc
 370500: system.cpu: Post execute machcode = e59b3000 pc = 10c00
 371000: system.cpu: Post execute machcode = e59fc068 pc = 10c04
 371500: system.cpu: Post execute machcode = e283300f pc = 10c08
 372000: system.cpu: Post execute machcode = e59f0064 pc = 10c0c
 372500: system.cpu: Post execute machcode = e0833005 pc = 10c10
 373000: system.cpu: Post execute machcode = e59f2060 pc = 10c14
 373500: system.cpu: Post execute machcode = e3c3300f pc = 10c18
 374000: system.cpu: Post execute machcode = e58c6000 pc = 10c1c
 374500: system.cpu: Post execute machcode = e5805000 pc = 10c20
 375000: system.cpu: Post execute machcode = e58b3000 pc = 10c24
 375500: system.cpu: Post execute machcode = e5821000 pc = 10c28
 376000: system.cpu: Post execute machcode = e28dd014 pc = 10c2c
 376500: system.cpu: Post execute machcode = 2e8bd8ff0 pc = 10c30
 377000: system.cpu: Post execute machcode = 2e8bd8ff0 pc = 10c30
 377500: system.cpu: Post execute machcode = 2e8bd8ff0 pc = 10c30
 378000: system.cpu: Post execute machcode = 2e8bd8ff0 pc = 10c30
 378500: system.cpu: Post execute machcode = 2e8bd8ff0 pc = 10c30
 379000: system.cpu: Post execute machcode = 2e8bd8ff0 pc = 10c30
 379500: system.cpu: Post execute a function RETURN machcode = 2e8bd8ff0 pc = 10c30 currentRetnNum is 13
 380000: system.cpu: Post execute machcode = e3a02004 pc = 10750
 380500: system.cpu: Post execute machcode = 2e59f31d0 pc = 10754
 381000: system.cpu: Post execute machcode = 2e59f41d0 pc = 10758
 381500: system.cpu: Post execute machcode = e5931000 pc = 1075c
 382000: system.cpu: Post execute machcode = e5d13000 pc = 10760
 382500: system.cpu: Post execute machcode = e5d1c001 pc = 10764
 383000: system.cpu: Post execute machcode = e5d10002 pc = 10768
 383500: system.cpu: Post execute machcode = e183340c pc = 1076c
 384000: system.cpu: Post execute machcode = e1833800 pc = 10770
 384500: system.cpu: Post execute machcode = e5d10003 pc = 10774
 385000: system.cpu: Post execute machcode = e0811002 pc = 10778
 385500: system.cpu: Post execute machcode = e1833c00 pc = 1077c
 386000: system.cpu: Post execute machcode = 2e3c330ff pc = 10780
 386500: system.cpu: Post execute machcode = e28d0010 pc = 10784
 387000: system.cpu: Post execute machcode = e5843000 pc = 10788
 387500: system.cpu: Post execute a function CALL machcode = 3eb0057b7 pc = 1078c currentCallNum is 12
 388000: system.cpu: Post execute machcode = 1e92d4011 pc = 26670
 388500: system.cpu: Post execute machcode = 1e92d4011 pc = 26670
 389000: system.cpu: Post execute machcode = 1e92d4011 pc = 26670
 389500: system.cpu: Post execute machcode = 1e92d4011 pc = 26670
 390000: system.cpu: Post execute machcode = e2522004 pc = 26674
 390500: system.cpu: Post execute machcode = ba000021 pc = 26678
 391000: system.cpu: Post execute machcode = e210c003 pc = 2667c
 391500: system.cpu: Post execute machcode = 1a000027 pc = 26680
 392000: system.cpu: Post execute machcode = e211c003 pc = 26684
 392500: system.cpu: Post execute machcode = 1a000031 pc = 26688
 393000: system.cpu: Post execute machcode = e252201c pc = 2668c
 393500: system.cpu: Post execute machcode = 1e92d01e0 pc = 26690
 394000: system.cpu: Post execute machcode = 1e92d01e0 pc = 26690
 394500: system.cpu: Post execute machcode = 1e92d01e0 pc = 26690
 395000: system.cpu: Post execute machcode = 1e92d01e0 pc = 26690
 395500: system.cpu: Post execute machcode = 1e92d01e0 pc = 26690
 396000: system.cpu: Post execute machcode = ba000003 pc = 26694
 396500: system.cpu: Post execute machcode = e212c01c pc = 266a8
 397000: system.cpu: Post execute machcode = e26cc020 pc = 266ac
 397500: system.cpu: Post execute machcode = 108ff00c pc = 266b0
 398000: system.cpu: Post execute machcode = e491e004 pc = 266d4
 398500: system.cpu: Post execute machcode = e491e004 pc = 266d4
 399000: system.cpu: Post execute machcode = e08ff00c pc = 266d8
 399500: system.cpu: Post execute machcode = e480e004 pc = 266fc
 400000: system.cpu: Post execute machcode = e480e004 pc = 266fc
 400500: system.cpu: Post execute machcode = e8bd01e0 pc = 26700
 401000: system.cpu: Post execute machcode = e8bd01e0 pc = 26700
 401500: system.cpu: Post execute machcode = e8bd01e0 pc = 26700
 402000: system.cpu: Post execute machcode = e1b02f82 pc = 26704
 402500: system.cpu: Post execute machcode = 14d13001 pc = 26708
 403000: system.cpu: Post execute machcode = 14d13001 pc = 26708
 403500: system.cpu: Post execute machcode = 24d14001 pc = 2670c
 404000: system.cpu: Post execute machcode = 24d14001 pc = 2670c
 404500: system.cpu: Post execute machcode = 25d1c000 pc = 26710
 405000: system.cpu: Post execute machcode = 14c03001 pc = 26714
 405500: system.cpu: Post execute machcode = 14c03001 pc = 26714
 406000: system.cpu: Post execute machcode = 24c04001 pc = 26718
 406500: system.cpu: Post execute machcode = 24c04001 pc = 26718
 407000: system.cpu: Post execute machcode = 25c0c000 pc = 2671c
 407500: system.cpu: Post execute machcode = e8bd8011 pc = 26720
 408000: system.cpu: Post execute machcode = e8bd8011 pc = 26720
 408500: system.cpu: Post execute machcode = e8bd8011 pc = 26720
 409000: system.cpu: Post execute a function RETURN machcode = e8bd8011 pc = 26720 currentRetnNum is 14
 409500: system.cpu: Post execute machcode = e59d2144 pc = 10790
 410000: system.cpu: Post execute machcode = e59d3010 pc = 10794
 410500: system.cpu: Post execute machcode = e3520000 pc = 10798
 411000: system.cpu: Post execute machcode = e5843004 pc = 1079c
 411500: system.cpu: Post execute machcode = a000003 pc = 107a0
 412000: system.cpu: Post execute machcode = e59f3130 pc = 107b4
 412500: system.cpu: Post execute machcode = e59d1008 pc = 107b8
 413000: system.cpu: Post execute machcode = e5932000 pc = 107bc
 413500: system.cpu: Post execute machcode = e59d0004 pc = 107c0
 414000: system.cpu: Post execute a function CALL machcode = 1eb006a6e pc = 107c4 currentCallNum is 13
 414500: system.cpu: Post execute machcode = 2e59f3090 pc = 2b184
 415000: system.cpu: Post execute machcode = 1e92d4070 pc = 2b188
 415500: system.cpu: Post execute machcode = 1e92d4070 pc = 2b188
 416000: system.cpu: Post execute machcode = 1e92d4070 pc = 2b188
 416500: system.cpu: Post execute machcode = 1e92d4070 pc = 2b188
 417000: system.cpu: Post execute machcode = 1e92d4070 pc = 2b188
 417500: system.cpu: Post execute machcode = e3530000 pc = 2b18c
 418000: system.cpu: Post execute machcode = e1a04000 pc = 2b190
 418500: system.cpu: Post execute machcode = e1a05001 pc = 2b194
 419000: system.cpu: Post execute machcode = e1a06002 pc = 2b198
 419500: system.cpu: Post execute machcode = a000013 pc = 2b19c
 420000: system.cpu: Post execute machcode = e3a02000 pc = 2b1f0
 420500: system.cpu: Post execute machcode = e59f1034 pc = 2b1f4
 421000: system.cpu: Post execute machcode = e59f3034 pc = 2b1f8
 421500: system.cpu: Post execute machcode = e5910000 pc = 2b1fc
 422000: system.cpu: Post execute machcode = e5931000 pc = 2b200
 422500: system.cpu: Post execute machcode = e59f3014 pc = 2b204
 423000: system.cpu: Post execute machcode = e1500001 pc = 2b208
 423500: system.cpu: Post execute machcode = e5832000 pc = 2b20c
 424000: system.cpu: Post execute machcode = affffe8 pc = 2b210
 424500: system.cpu: Post execute machcode = e59f1064 pc = 2b1b8
 425000: system.cpu: Post execute machcode = e59f2064 pc = 2b1bc
 425500: system.cpu: Post execute machcode = e59f3064 pc = 2b1c0
 426000: system.cpu: Post execute machcode = e5814000 pc = 2b1c4
 426500: system.cpu: Post execute machcode = e5825000 pc = 2b1c8
 427000: system.cpu: Post execute machcode = e5836000 pc = 2b1cc
 427500: system.cpu: Post execute a function CALL machcode = 2ebffff91 pc = 2b1d0 currentCallNum is 14
 428000: system.cpu: Post execute machcode = e59f3048 pc = 2b01c
 428500: system.cpu: Post execute machcode = e5933000 pc = 2b020
 429000: system.cpu: Post execute machcode = e3530000 pc = 2b024
 429500: system.cpu: Post execute a function RETURN machcode = 1112fff1e pc = 2b028 currentRetnNum is 15
 430000: system.cpu: Post execute a function CALL machcode = ebfffc74 pc = 2b1d4 currentCallNum is 15
 430500: system.cpu: Post execute machcode = 3e92d4ff0 pc = 2a3ac
 431000: system.cpu: Post execute machcode = 3e92d4ff0 pc = 2a3ac
 431500: system.cpu: Post execute machcode = 3e92d4ff0 pc = 2a3ac
 432000: system.cpu: Post execute machcode = 3e92d4ff0 pc = 2a3ac
 432500: system.cpu: Post execute machcode = 3e92d4ff0 pc = 2a3ac
 433000: system.cpu: Post execute machcode = 3e92d4ff0 pc = 2a3ac
 433500: system.cpu: Post execute machcode = 3e92d4ff0 pc = 2a3ac
 434000: system.cpu: Post execute machcode = 3e92d4ff0 pc = 2a3ac
 434500: system.cpu: Post execute machcode = 3e92d4ff0 pc = 2a3ac
 435000: system.cpu: Post execute machcode = 3e92d4ff0 pc = 2a3ac
 435500: system.cpu: Post execute machcode = e24dd014 pc = 2a3b0
 436000: system.cpu: Post execute a function CALL machcode = 1eb00b2a6 pc = 2a3b4 currentCallNum is 16
 436500: system.cpu: Post execute machcode = 3e92d40f0 pc = 56e54
 437000: system.cpu: Post execute machcode = 3e92d40f0 pc = 56e54
 437500: system.cpu: Post execute machcode = 3e92d40f0 pc = 56e54
 438000: system.cpu: Post execute machcode = 3e92d40f0 pc = 56e54
 438500: system.cpu: Post execute machcode = 3e92d40f0 pc = 56e54
 439000: system.cpu: Post execute machcode = 3e92d40f0 pc = 56e54
 439500: system.cpu: Post execute machcode = e24dda01 pc = 56e58
 440000: system.cpu: Post execute machcode = e24dd004 pc = 56e5c
 440500: system.cpu: Post execute machcode = e59f0184 pc = 56e60
 441000: system.cpu: Post execute machcode = e1a0100d pc = 56e64
 441500: system.cpu: Post execute machcode = e3a02a01 pc = 56e68
 442000: system.cpu: Post execute machcode = e3a07055 pc = 56e6c
 442500: system.cpu: Post execute machcode = 1ef000000 pc = 56e70
 443000: system.cpu: Post execute machcode = e3500000 pc = 56e74
 443500: system.cpu: Post execute machcode = d3a03000 pc = 56e78
 444000: system.cpu: Post execute machcode = c3a03001 pc = 56e7c
 444500: system.cpu: Post execute machcode = e3700a01 pc = 56e80
 445000: system.cpu: Post execute machcode = 83a03000 pc = 56e84
 445500: system.cpu: Post execute machcode = e3530000 pc = 56e88
 446000: system.cpu: Post execute machcode = a00001a pc = 56e8c
 446500: system.cpu: Post execute machcode = e5dd3000 pc = 56e90
 447000: system.cpu: Post execute machcode = e353005b pc = 56e94
 447500: system.cpu: Post execute machcode = a000017 pc = 56e98
 448000: system.cpu: Post execute machcode = e353002f pc = 56e9c
 448500: system.cpu: Post execute machcode = 1a00004c pc = 56ea0
 449000: system.cpu: Post execute machcode = e3500001 pc = 56ea4
 449500: system.cpu: Post execute machcode = a00000c pc = 56ea8
 450000: system.cpu: Post execute machcode = e2404001 pc = 56eac
 450500: system.cpu: Post execute machcode = e7dd3004 pc = 56eb0
 451000: system.cpu: Post execute machcode = e353002f pc = 56eb4
 451500: system.cpu: Post execute machcode = a000037 pc = 56eb8
 452000: system.cpu: Post execute machcode = e08d1004 pc = 56ebc
 452500: system.cpu: Post execute machcode = ea000004 pc = 56ec0
 453000: system.cpu: Post execute machcode = e3540001 pc = 56ed8
 453500: system.cpu: Post execute machcode = 21afffff8 pc = 56edc
 454000: system.cpu: Post execute machcode = e5713001 pc = 56ec4
 454500: system.cpu: Post execute machcode = e5713001 pc = 56ec4
 455000: system.cpu: Post execute machcode = e2442001 pc = 56ec8
 455500: system.cpu: Post execute machcode = e353002f pc = 56ecc
 456000: system.cpu: Post execute machcode = a000032 pc = 56ed0
 456500: system.cpu: Post execute machcode = e1a04002 pc = 56ed4
 457000: system.cpu: Post execute machcode = e3540001 pc = 56ed8
 457500: system.cpu: Post execute machcode = 21afffff8 pc = 56edc
 458000: system.cpu: Post execute machcode = e5713001 pc = 56ec4
 458500: system.cpu: Post execute machcode = e5713001 pc = 56ec4
 459000: system.cpu: Post execute machcode = e2442001 pc = 56ec8
 459500: system.cpu: Post execute machcode = e353002f pc = 56ecc
 460000: system.cpu: Post execute machcode = a000032 pc = 56ed0
 460500: system.cpu: Post execute machcode = e1a04002 pc = 56ed4
 461000: system.cpu: Post execute machcode = e3540001 pc = 56ed8
 461500: system.cpu: Post execute machcode = 21afffff8 pc = 56edc
 462000: system.cpu: Post execute machcode = e5713001 pc = 56ec4
 462500: system.cpu: Post execute machcode = e5713001 pc = 56ec4
 463000: system.cpu: Post execute machcode = e2442001 pc = 56ec8
 463500: system.cpu: Post execute machcode = e353002f pc = 56ecc
 464000: system.cpu: Post execute machcode = a000032 pc = 56ed0
 464500: system.cpu: Post execute machcode = e1a04002 pc = 56ed4
 465000: system.cpu: Post execute machcode = e3540001 pc = 56ed8
 465500: system.cpu: Post execute machcode = 21afffff8 pc = 56edc
 466000: system.cpu: Post execute machcode = e5713001 pc = 56ec4
 466500: system.cpu: Post execute machcode = e5713001 pc = 56ec4
 467000: system.cpu: Post execute machcode = e2442001 pc = 56ec8
 467500: system.cpu: Post execute machcode = e353002f pc = 56ecc
 468000: system.cpu: Post execute machcode = a000032 pc = 56ed0
 468500: system.cpu: Post execute machcode = e1a04002 pc = 56ed4
 469000: system.cpu: Post execute machcode = e3540001 pc = 56ed8
 469500: system.cpu: Post execute machcode = 21afffff8 pc = 56edc
 470000: system.cpu: Post execute machcode = e5713001 pc = 56ec4
 470500: system.cpu: Post execute machcode = e5713001 pc = 56ec4
 471000: system.cpu: Post execute machcode = e2442001 pc = 56ec8
 471500: system.cpu: Post execute machcode = e353002f pc = 56ecc
 472000: system.cpu: Post execute machcode = a000032 pc = 56ed0
 472500: system.cpu: Post execute machcode = e1a04002 pc = 56ed4
 473000: system.cpu: Post execute machcode = e3540001 pc = 56ed8
 473500: system.cpu: Post execute machcode = 21afffff8 pc = 56edc
 474000: system.cpu: Post execute machcode = e5713001 pc = 56ec4
 474500: system.cpu: Post execute machcode = e5713001 pc = 56ec4
 475000: system.cpu: Post execute machcode = e2442001 pc = 56ec8
 475500: system.cpu: Post execute machcode = e353002f pc = 56ecc
 476000: system.cpu: Post execute machcode = a000032 pc = 56ed0
 476500: system.cpu: Post execute machcode = e1a04002 pc = 56ed4
 477000: system.cpu: Post execute machcode = e3540001 pc = 56ed8
 477500: system.cpu: Post execute machcode = 21afffff8 pc = 56edc
 478000: system.cpu: Post execute machcode = e5713001 pc = 56ec4
 478500: system.cpu: Post execute machcode = e5713001 pc = 56ec4
 479000: system.cpu: Post execute machcode = e2442001 pc = 56ec8
 479500: system.cpu: Post execute machcode = e353002f pc = 56ecc
 480000: system.cpu: Post execute machcode = a000032 pc = 56ed0
 480500: system.cpu: Post execute machcode = e1a04002 pc = 56ed4
 481000: system.cpu: Post execute machcode = e3540001 pc = 56ed8
 481500: system.cpu: Post execute machcode = 21afffff8 pc = 56edc
 482000: system.cpu: Post execute machcode = e5713001 pc = 56ec4
 482500: system.cpu: Post execute machcode = e5713001 pc = 56ec4
 483000: system.cpu: Post execute machcode = e2442001 pc = 56ec8
 483500: system.cpu: Post execute machcode = e353002f pc = 56ecc
 484000: system.cpu: Post execute machcode = a000032 pc = 56ed0
 484500: system.cpu: Post execute machcode = e1a04002 pc = 56ed4
 485000: system.cpu: Post execute machcode = e3540001 pc = 56ed8
 485500: system.cpu: Post execute machcode = 21afffff8 pc = 56edc
 486000: system.cpu: Post execute machcode = e5713001 pc = 56ec4
 486500: system.cpu: Post execute machcode = e5713001 pc = 56ec4
 487000: system.cpu: Post execute machcode = e2442001 pc = 56ec8
 487500: system.cpu: Post execute machcode = e353002f pc = 56ecc
 488000: system.cpu: Post execute machcode = a000032 pc = 56ed0
 488500: system.cpu: Post execute machcode = e1a04002 pc = 56ed4
 489000: system.cpu: Post execute machcode = e3540001 pc = 56ed8
 489500: system.cpu: Post execute machcode = 21afffff8 pc = 56edc
 490000: system.cpu: Post execute machcode = e5713001 pc = 56ec4
 490500: system.cpu: Post execute machcode = e5713001 pc = 56ec4
 491000: system.cpu: Post execute machcode = e2442001 pc = 56ec8
 491500: system.cpu: Post execute machcode = e353002f pc = 56ecc
 492000: system.cpu: Post execute machcode = a000032 pc = 56ed0
 492500: system.cpu: Post execute machcode = e1a04002 pc = 56ed4
 493000: system.cpu: Post execute machcode = e3540001 pc = 56ed8
 493500: system.cpu: Post execute machcode = 21afffff8 pc = 56edc
 494000: system.cpu: Post execute machcode = e5713001 pc = 56ec4
 494500: system.cpu: Post execute machcode = e5713001 pc = 56ec4
 495000: system.cpu: Post execute machcode = e2442001 pc = 56ec8
 495500: system.cpu: Post execute machcode = e353002f pc = 56ecc
 496000: system.cpu: Post execute machcode = a000032 pc = 56ed0
 496500: system.cpu: Post execute machcode = e1a04002 pc = 56ed4
 497000: system.cpu: Post execute machcode = e3540001 pc = 56ed8
 497500: system.cpu: Post execute machcode = 21afffff8 pc = 56edc
 498000: system.cpu: Post execute machcode = e5713001 pc = 56ec4
 498500: system.cpu: Post execute machcode = e5713001 pc = 56ec4
 499000: system.cpu: Post execute machcode = e2442001 pc = 56ec8
 499500: system.cpu: Post execute machcode = e353002f pc = 56ecc
 500000: system.cpu: Post execute machcode = a000032 pc = 56ed0
 500500: system.cpu: Post execute machcode = e1a04002 pc = 56ed4
 501000: system.cpu: Post execute machcode = e3540001 pc = 56ed8
 501500: system.cpu: Post execute machcode = 21afffff8 pc = 56edc
 502000: system.cpu: Post execute machcode = e5713001 pc = 56ec4
 502500: system.cpu: Post execute machcode = e5713001 pc = 56ec4
 503000: system.cpu: Post execute machcode = e2442001 pc = 56ec8
 503500: system.cpu: Post execute machcode = e353002f pc = 56ecc
 504000: system.cpu: Post execute machcode = a000032 pc = 56ed0
 504500: system.cpu: Post execute machcode = e1a04002 pc = 56ed4
 505000: system.cpu: Post execute machcode = e3540001 pc = 56ed8
 505500: system.cpu: Post execute machcode = 21afffff8 pc = 56edc
 506000: system.cpu: Post execute machcode = e5713001 pc = 56ec4
 506500: system.cpu: Post execute machcode = e5713001 pc = 56ec4
 507000: system.cpu: Post execute machcode = e2442001 pc = 56ec8
 507500: system.cpu: Post execute machcode = e353002f pc = 56ecc
 508000: system.cpu: Post execute machcode = a000032 pc = 56ed0
 508500: system.cpu: Post execute machcode = e1a04002 pc = 56ed4
 509000: system.cpu: Post execute machcode = e3540001 pc = 56ed8
 509500: system.cpu: Post execute machcode = 21afffff8 pc = 56edc
 510000: system.cpu: Post execute machcode = e5713001 pc = 56ec4
 510500: system.cpu: Post execute machcode = e5713001 pc = 56ec4
 511000: system.cpu: Post execute machcode = e2442001 pc = 56ec8
 511500: system.cpu: Post execute machcode = e353002f pc = 56ecc
 512000: system.cpu: Post execute machcode = a000032 pc = 56ed0
 512500: system.cpu: Post execute machcode = e1a04002 pc = 56ed4
 513000: system.cpu: Post execute machcode = e3540001 pc = 56ed8
 513500: system.cpu: Post execute machcode = 21afffff8 pc = 56edc
 514000: system.cpu: Post execute machcode = e5713001 pc = 56ec4
 514500: system.cpu: Post execute machcode = e5713001 pc = 56ec4
 515000: system.cpu: Post execute machcode = e2442001 pc = 56ec8
 515500: system.cpu: Post execute machcode = e353002f pc = 56ecc
 516000: system.cpu: Post execute machcode = a000032 pc = 56ed0
 516500: system.cpu: Post execute machcode = e1a04002 pc = 56ed4
 517000: system.cpu: Post execute machcode = e3540001 pc = 56ed8
 517500: system.cpu: Post execute machcode = 21afffff8 pc = 56edc
 518000: system.cpu: Post execute machcode = e5713001 pc = 56ec4
 518500: system.cpu: Post execute machcode = e5713001 pc = 56ec4
 519000: system.cpu: Post execute machcode = e2442001 pc = 56ec8
 519500: system.cpu: Post execute machcode = e353002f pc = 56ecc
 520000: system.cpu: Post execute machcode = a000032 pc = 56ed0
 520500: system.cpu: Post execute machcode = e2840001 pc = 56fa0
 521000: system.cpu: Post execute a function CALL machcode = ebff2e8a pc = 56fa4 currentCallNum is 17
 521500: system.cpu: Post execute machcode = e59f31ac pc = 229d4
 522000: system.cpu: Post execute machcode = e5933000 pc = 229d8
 522500: system.cpu: Post execute machcode = e3530000 pc = 229dc
 523000: system.cpu: Post execute machcode = 1a00005a pc = 229e0
 523500: system.cpu: Post execute machcode = e1a0100e pc = 22b50
 524000: system.cpu: Post execute machcode = 1e12fff13 pc = 22b54
 524500: system.cpu: Post execute machcode = e3a02000 pc = 23f68
 525000: system.cpu: Post execute machcode = e59f1034 pc = 23f6c
 525500: system.cpu: Post execute machcode = e59f3034 pc = 23f70
 526000: system.cpu: Post execute machcode = e5911454 pc = 23f74
 526500: system.cpu: Post execute machcode = e5832000 pc = 23f78
 527000: system.cpu: Post execute machcode = e1510002 pc = 23f7c
 527500: system.cpu: Post execute machcode = ba000000 pc = 23f80
 528000: system.cpu: Post execute machcode = 1e52de004 pc = 23f88
 528500: system.cpu: Post execute machcode = 1e52de004 pc = 23f88
 529000: system.cpu: Post execute machcode = e24dd00c pc = 23f8c
 529500: system.cpu: Post execute machcode = e58d0004 pc = 23f90
 530000: system.cpu: Post execute a function CALL machcode = 2ebfffef6 pc = 23f94 currentCallNum is 18
 530500: system.cpu: Post execute machcode = e3a03000 pc = 23b74
 531000: system.cpu: Post execute machcode = 3e92d4ff0 pc = 23b78
 531500: system.cpu: Post execute machcode = 3e92d4ff0 pc = 23b78
 532000: system.cpu: Post execute machcode = 3e92d4ff0 pc = 23b78
 532500: system.cpu: Post execute machcode = 3e92d4ff0 pc = 23b78
 533000: system.cpu: Post execute machcode = 3e92d4ff0 pc = 23b78
 533500: system.cpu: Post execute machcode = 3e92d4ff0 pc = 23b78
 534000: system.cpu: Post execute machcode = 3e92d4ff0 pc = 23b78
 534500: system.cpu: Post execute machcode = 3e92d4ff0 pc = 23b78
 535000: system.cpu: Post execute machcode = 3e92d4ff0 pc = 23b78
 535500: system.cpu: Post execute machcode = 3e92d4ff0 pc = 23b78
 536000: system.cpu: Post execute a function CALL machcode = 2ebffb49f pc = 23b7c currentCallNum is 19
 536500: system.cpu: Post execute machcode = e3e00a0f pc = 10e00
 537000: system.cpu: Post execute machcode = e240f01f pc = 10e04
 537500: system.cpu: Post execute machcode = ee1d0f70 pc = ffff0fe0
 538000: system.cpu: Post execute a function RETURN machcode = e1a0f00e pc = ffff0fe4 currentRetnNum is 16
 538500: system.cpu: Post execute machcode = 2e59f7394 pc = 23b80
 539000: system.cpu: Post execute machcode = 2e59f2394 pc = 23b84
 539500: system.cpu: Post execute machcode = e5873454 pc = 23b88
 540000: system.cpu: Post execute machcode = e79f2002 pc = 23b8c
 540500: system.cpu: Post execute machcode = e59f338c pc = 23b90
 541000: system.cpu: Post execute machcode = e7807002 pc = 23b94
 541500: system.cpu: Post execute machcode = e3a02001 pc = 23b98
 542000: system.cpu: Post execute machcode = e3530000 pc = 23b9c
 542500: system.cpu: Post execute machcode = e59f6380 pc = 23ba0
 543000: system.cpu: Post execute machcode = 15933000 pc = 23ba4
 543500: system.cpu: Post execute machcode = e59fe37c pc = 23ba8
 544000: system.cpu: Post execute machcode = e59fc37c pc = 23bac
 544500: system.cpu: Post execute machcode = e59f137c pc = 23bb0
 545000: system.cpu: Post execute machcode = e24dd00c pc = 23bb4
 545500: system.cpu: Post execute machcode = e59f0378 pc = 23bb8
 546000: system.cpu: Post execute machcode = e586304c pc = 23bbc
 546500: system.cpu: Post execute machcode = e586e040 pc = 23bc0
 547000: system.cpu: Post execute machcode = e586c044 pc = 23bc4
 547500: system.cpu: Post execute machcode = e5861048 pc = 23bc8
 548000: system.cpu: Post execute machcode = e5862050 pc = 23bcc
 548500: system.cpu: Post execute a function CALL machcode = 1eb0017a4 pc = 23bd0 currentCallNum is 20
 549000: system.cpu: Post execute machcode = 3e92d40f0 pc = 29a68
 549500: system.cpu: Post execute machcode = 3e92d40f0 pc = 29a68
 550000: system.cpu: Post execute machcode = 3e92d40f0 pc = 29a68
 550500: system.cpu: Post execute machcode = 3e92d40f0 pc = 29a68
 551000: system.cpu: Post execute machcode = 3e92d40f0 pc = 29a68
 551500: system.cpu: Post execute machcode = 3e92d40f0 pc = 29a68
 552000: system.cpu: Post execute machcode = e59f6044 pc = 29a6c
 552500: system.cpu: Post execute machcode = e1a05000 pc = 29a70
 553000: system.cpu: Post execute machcode = e1a07006 pc = 29a74
 553500: system.cpu: Post execute machcode = e5964000 pc = 29a78
 554000: system.cpu: Post execute machcode = e1a01005 pc = 29a7c
 554500: system.cpu: Post execute machcode = e5854000 pc = 29a80
 555000: system.cpu: Post execute machcode = e1a02007 pc = 29a84
 555500: system.cpu: Post execute machcode = e5923000 pc = 29a88
 556000: system.cpu: Post execute machcode = e1530004 pc = 29a8c
 556500: system.cpu: Post execute machcode = 1a000005 pc = 29a90
 557000: system.cpu: Post execute machcode = e1a00004 pc = 29a94
 557500: system.cpu: Post execute machcode = e3e03a0f pc = 29a98
 558000: system.cpu: Post execute a SYSCALL machcode = e1a0e00f pc = 29a9c currentSyslNum is 1
 558500: system.cpu: Post execute machcode = e243f03f pc = 29aa0
 559000: system.cpu: Post execute machcode = 2e1923f9f pc = ffff0fc0
 559500: system.cpu: Post execute machcode = e0533000 pc = ffff0fc4
 560000: system.cpu: Post execute machcode = 201823f91 pc = ffff0fc8
 560500: system.cpu: Post execute machcode = 3330001 pc = ffff0fcc
 561000: system.cpu: Post execute machcode = 20afffffa pc = ffff0fd0
 561500: system.cpu: Post execute machcode = e2730000 pc = ffff0fd4
 562000: system.cpu: Post execute machcode = f57ff05f pc = ffff0fd8
 562500: system.cpu: Post execute a function RETURN machcode = e1a0f00e pc = ffff0fdc currentRetnNum is 17
 563000: system.cpu: Post execute machcode = 23afffff7 pc = 29aa4
 563500: system.cpu: Post execute machcode = e1a03004 pc = 29aa8
 564000: system.cpu: Post execute machcode = e1540003 pc = 29aac
 564500: system.cpu: Post execute machcode = 21afffff0 pc = 29ab0
 565000: system.cpu: Post execute machcode = 2e8bd80f0 pc = 29ab4
 565500: system.cpu: Post execute machcode = 2e8bd80f0 pc = 29ab4
 566000: system.cpu: Post execute machcode = 2e8bd80f0 pc = 29ab4
 566500: system.cpu: Post execute machcode = 2e8bd80f0 pc = 29ab4
 567000: system.cpu: Post execute a function RETURN machcode = 2e8bd80f0 pc = 29ab4 currentRetnNum is 18
 567500: system.cpu: Post execute machcode = e59f3360 pc = 23bd4
 568000: system.cpu: Post execute machcode = e5935000 pc = 23bd8
 568500: system.cpu: Post execute machcode = e3550000 pc = 23bdc
 569000: system.cpu: Post execute machcode = a000042 pc = 23be0
 569500: system.cpu: Post execute machcode = e3a08000 pc = 23be4
 570000: system.cpu: Post execute machcode = e59f9350 pc = 23be8
 570500: system.cpu: Post execute machcode = e59fb350 pc = 23bec
 571000: system.cpu: Post execute machcode = e59fa350 pc = 23bf0
 571500: system.cpu: Post execute machcode = e5954000 pc = 23bf4
 572000: system.cpu: Post execute machcode = e3540000 pc = 23bf8
 572500: system.cpu: Post execute machcode = 1a000003 pc = 23bfc
 573000: system.cpu: Post execute machcode = ea000035 pc = 23c00
 573500: system.cpu: Post execute machcode = e3580000 pc = 23cdc
 574000: system.cpu: Post execute machcode = a000002 pc = 23ce0
 574500: system.cpu: Post execute machcode = e59f3254 pc = 23cf0
 575000: system.cpu: Post execute machcode = e5933000 pc = 23cf4
 575500: system.cpu: Post execute machcode = e3530000 pc = 23cf8
 576000: system.cpu: Post execute machcode = a000000 pc = 23cfc
 576500: system.cpu: Post execute machcode = e3a03001 pc = 23d04
 577000: system.cpu: Post execute machcode = e5873454 pc = 23d08
 577500: system.cpu: Post execute machcode = e28dd00c pc = 23d0c
 578000: system.cpu: Post execute machcode = 2e8bd8ff0 pc = 23d10
 578500: system.cpu: Post execute machcode = 2e8bd8ff0 pc = 23d10
 579000: system.cpu: Post execute machcode = 2e8bd8ff0 pc = 23d10
 579500: system.cpu: Post execute machcode = 2e8bd8ff0 pc = 23d10
 580000: system.cpu: Post execute machcode = 2e8bd8ff0 pc = 23d10
 580500: system.cpu: Post execute machcode = 2e8bd8ff0 pc = 23d10
 581000: system.cpu: Post execute a function RETURN machcode = 2e8bd8ff0 pc = 23d10 currentRetnNum is 19
 581500: system.cpu: Post execute machcode = e59d0004 pc = 23f98
 582000: system.cpu: Post execute machcode = e28dd00c pc = 23f9c
 582500: system.cpu: Post execute machcode = e49de004 pc = 23fa0
 583000: system.cpu: Post execute machcode = e49de004 pc = 23fa0
 583500: system.cpu: Post execute machcode = eafffa8a pc = 23fa4
 584000: system.cpu: Post execute machcode = e59f31ac pc = 229d4
 584500: system.cpu: Post execute machcode = e5933000 pc = 229d8
 585000: system.cpu: Post execute machcode = e3530000 pc = 229dc
 585500: system.cpu: Post execute machcode = 1a00005a pc = 229e0
 586000: system.cpu: Post execute machcode = 3e92d41f0 pc = 229e4
 586500: system.cpu: Post execute machcode = 3e92d41f0 pc = 229e4
 587000: system.cpu: Post execute machcode = 3e92d41f0 pc = 229e4
 587500: system.cpu: Post execute machcode = 3e92d41f0 pc = 229e4
 588000: system.cpu: Post execute machcode = 3e92d41f0 pc = 229e4
 588500: system.cpu: Post execute machcode = 3e92d41f0 pc = 229e4
 589000: system.cpu: Post execute machcode = 3e92d41f0 pc = 229e4
 589500: system.cpu: Post execute machcode = e1a06000 pc = 229e8
 590000: system.cpu: Post execute a function CALL machcode = ebffb903 pc = 229ec currentCallNum is 21
 590500: system.cpu: Post execute machcode = e3e00a0f pc = 10e00
 591000: system.cpu: Post execute machcode = e240f01f pc = 10e04
 591500: system.cpu: Post execute machcode = ee1d0f70 pc = ffff0fe0
 592000: system.cpu: Post execute a function RETURN machcode = e1a0f00e pc = ffff0fe4 currentRetnNum is 20
 592500: system.cpu: Post execute machcode = 2e59f3194 pc = 229f0
 593000: system.cpu: Post execute machcode = e79f3003 pc = 229f4
 593500: system.cpu: Post execute machcode = e7905003 pc = 229f8
 594000: system.cpu: Post execute machcode = e3550000 pc = 229fc
 594500: system.cpu: Post execute machcode = a000002 pc = 22a00
 595000: system.cpu: Post execute machcode = e5954004 pc = 22a04
 595500: system.cpu: Post execute machcode = e2144004 pc = 22a08
 596000: system.cpu: Post execute machcode = a000028 pc = 22a0c
 596500: system.cpu: Post execute machcode = e3a01001 pc = 22ab4
[...]
2704500: system.cpu: Post execute a function CALL machcode = 1eb00170d pc = 10864 currentCallNum is 80
2705000: system.cpu: Post execute machcode = 1e92d4010 pc = 164a0
2705500: system.cpu: Post execute machcode = 1e92d4010 pc = 164a0
2706000: system.cpu: Post execute machcode = 1e92d4010 pc = 164a0
2706500: system.cpu: Post execute machcode = e3a02001 pc = 164a4
2707000: system.cpu: Post execute machcode = e59f1000 pc = 164a8
2707500: system.cpu: Post execute a function CALL machcode = ebffffac pc = 164ac currentCallNum is 81
2708000: system.cpu: Post execute machcode = e59f3124 pc = 16364
2708500: system.cpu: Post execute machcode = 1e92d4080 pc = 16368
2709000: system.cpu: Post execute machcode = 1e92d4080 pc = 16368
2709500: system.cpu: Post execute machcode = 1e92d4080 pc = 16368
2710000: system.cpu: Post execute machcode = e3530000 pc = 1636c
2710500: system.cpu: Post execute machcode = e1a05000 pc = 16370
2711000: system.cpu: Post execute machcode = e1a06001 pc = 16374
2711500: system.cpu: Post execute machcode = e1a07002 pc = 16378
2712000: system.cpu: Post execute machcode = a000000 pc = 1637c
2712500: system.cpu: Post execute machcode = e59f4108 pc = 16384
2713000: system.cpu: Post execute machcode = e5968000 pc = 16388
2713500: system.cpu: Post execute machcode = e3580000 pc = 1638c
2714000: system.cpu: Post execute machcode = a000013 pc = 16390
2714500: system.cpu: Post execute machcode = e5983004 pc = 16394
2715000: system.cpu: Post execute machcode = e3530000 pc = 16398
2715500: system.cpu: Post execute machcode = e0881203 pc = 1639c
2716000: system.cpu: Post execute machcode = a00000b pc = 163a0
2716500: system.cpu: Post execute machcode = e5112008 pc = 163a4
2717000: system.cpu: Post execute machcode = e2433001 pc = 163a8
2717500: system.cpu: Post execute machcode = e3520003 pc = 163ac
2718000: system.cpu: Post execute machcode = e5883004 pc = 163b0
2718500: system.cpu: Post execute machcode = a00002c pc = 163b4
2719000: system.cpu: Post execute machcode = e3520004 pc = 163b8
2719500: system.cpu: Post execute machcode = a000022 pc = 163bc
2720000: system.cpu: Post execute machcode = e0883203 pc = 1644c
2720500: system.cpu: Post execute machcode = e593100c pc = 16450
2721000: system.cpu: Post execute machcode = e5942000 pc = 16454
2721500: system.cpu: Post execute machcode = e5930010 pc = 16458
2722000: system.cpu: Post execute machcode = e0213002 pc = 1645c
2722500: system.cpu: Post execute machcode = e1a01005 pc = 16460
2723000: system.cpu: Post execute a function CALL machcode = 1e12fff33 pc = 16464 currentCallNum is 82
2723500: system.cpu: Post execute machcode = 1e92d4070 pc = 10dc0
2724000: system.cpu: Post execute machcode = 1e92d4070 pc = 10dc0
2724500: system.cpu: Post execute machcode = 1e92d4070 pc = 10dc0
2725000: system.cpu: Post execute machcode = 1e92d4070 pc = 10dc0
2725500: system.cpu: Post execute machcode = 1e92d4070 pc = 10dc0
2726000: system.cpu: Post execute machcode = e59f302c pc = 10dc4
2726500: system.cpu: Post execute machcode = e59f502c pc = 10dc8
2727000: system.cpu: Post execute machcode = e0433005 pc = 10dcc
2727500: system.cpu: Post execute machcode = e1b03143 pc = 10dd0
2728000: system.cpu: Post execute machcode = 11a04003 pc = 10dd4
2728500: system.cpu: Post execute machcode = 10855103 pc = 10dd8
2729000: system.cpu: Post execute machcode = a000003 pc = 10ddc
2729500: system.cpu: Post execute machcode = e5353004 pc = 10de0
2730000: system.cpu: Post execute machcode = e5353004 pc = 10de0
2730500: system.cpu: Post execute a function CALL machcode = 1e12fff33 pc = 10de4 currentCallNum is 83
2731000: system.cpu: Post execute machcode = e59f3004 pc = 1043c
2731500: system.cpu: Post execute machcode = e5930014 pc = 10440
2732000: system.cpu: Post execute machcode = ea012fa5 pc = 10444
2732500: system.cpu: Post execute machcode = e2503000 pc = 5c2e0
2733000: system.cpu: Post execute a function RETURN machcode = 1012fff1e pc = 5c2e4 currentRetnNum is 107
2733500: system.cpu: Post execute machcode = e2544001 pc = 10de8
2734000: system.cpu: Post execute machcode = 21afffffb pc = 10dec
2734500: system.cpu: Post execute machcode = e5353004 pc = 10de0
2735000: system.cpu: Post execute machcode = e5353004 pc = 10de0
2735500: system.cpu: Post execute a function CALL machcode = 1e12fff33 pc = 10de4 currentCallNum is 84
2736000: system.cpu: Post execute machcode = 1e92d4010 pc = 10514
2736500: system.cpu: Post execute machcode = 1e92d4010 pc = 10514
2737000: system.cpu: Post execute machcode = 1e92d4010 pc = 10514
2737500: system.cpu: Post execute machcode = e59f402c pc = 10518
2738000: system.cpu: Post execute machcode = e5d43000 pc = 1051c
2738500: system.cpu: Post execute machcode = e3530000 pc = 10520
2739000: system.cpu: Post execute machcode = 18bd8010 pc = 10524
2739500: system.cpu: Post execute machcode = 18bd8010 pc = 10524
2740000: system.cpu: Post execute a function RETURN machcode = 18bd8010 pc = 10524 currentRetnNum is 108
2740500: system.cpu: Post execute a function CALL machcode = 2ebffffdf pc = 10528 currentCallNum is 85
2741000: system.cpu: Post execute machcode = e59f301c pc = 104ac
2741500: system.cpu: Post execute machcode = e59f001c pc = 104b0
2742000: system.cpu: Post execute machcode = e0433000 pc = 104b4
2742500: system.cpu: Post execute machcode = e3530006 pc = 104b8
2743000: system.cpu: Post execute a function RETURN machcode = 1912fff1e pc = 104bc currentRetnNum is 109
2743500: system.cpu: Post execute machcode = e59f301c pc = 1052c
2744000: system.cpu: Post execute machcode = e3530000 pc = 10530
2744500: system.cpu: Post execute machcode = a000001 pc = 10534
2745000: system.cpu: Post execute machcode = e3a03001 pc = 10540
2745500: system.cpu: Post execute machcode = e5c43000 pc = 10544
2746000: system.cpu: Post execute machcode = e8bd8010 pc = 10548
2746500: system.cpu: Post execute machcode = e8bd8010 pc = 10548
2747000: system.cpu: Post execute a function RETURN machcode = e8bd8010 pc = 10548 currentRetnNum is 110
2747500: system.cpu: Post execute machcode = e2544001 pc = 10de8
2748000: system.cpu: Post execute machcode = 21afffffb pc = 10dec
2748500: system.cpu: Post execute machcode = e8bd4070 pc = 10df0
2749000: system.cpu: Post execute machcode = e8bd4070 pc = 10df0
2749500: system.cpu: Post execute machcode = e8bd4070 pc = 10df0
2750000: system.cpu: Post execute machcode = 2ea0180fc pc = 10df4
2750500: system.cpu: Post execute machcode = 1e92d4008 pc = 711ec
2751000: system.cpu: Post execute machcode = 1e92d4008 pc = 711ec
2751500: system.cpu: Post execute machcode = 1e92d4008 pc = 711ec
2752000: system.cpu: Post execute machcode = e8bd8008 pc = 711f0
2752500: system.cpu: Post execute machcode = e8bd8008 pc = 711f0
2753000: system.cpu: Post execute a function RETURN machcode = e8bd8008 pc = 711f0 currentRetnNum is 111
2753500: system.cpu: Post execute machcode = eaffffc9 pc = 16468
2754000: system.cpu: Post execute machcode = e5983004 pc = 16394
2754500: system.cpu: Post execute machcode = e3530000 pc = 16398
2755000: system.cpu: Post execute machcode = e0881203 pc = 1639c
2755500: system.cpu: Post execute machcode = a00000b pc = 163a0
2756000: system.cpu: Post execute machcode = e5983000 pc = 163d4
2756500: system.cpu: Post execute machcode = e3530000 pc = 163d8
2757000: system.cpu: Post execute machcode = e5863000 pc = 163dc
2757500: system.cpu: Post execute machcode = 1a000027 pc = 163e0
2758000: system.cpu: Post execute machcode = e3570000 pc = 163e4
2758500: system.cpu: Post execute machcode = a00000d pc = 163e8
2759000: system.cpu: Post execute machcode = e59f60a4 pc = 163ec
2759500: system.cpu: Post execute machcode = e59f30a4 pc = 163f0
2760000: system.cpu: Post execute machcode = e1560003 pc = 163f4
2760500: system.cpu: Post execute machcode = 2a000009 pc = 163f8
2761000: system.cpu: Post execute machcode = e1e07006 pc = 163fc
2761500: system.cpu: Post execute machcode = e3a04000 pc = 16400
2762000: system.cpu: Post execute machcode = e0877003 pc = 16404
2762500: system.cpu: Post execute machcode = e1a07127 pc = 16408
2763000: system.cpu: Post execute machcode = e2877001 pc = 1640c
2763500: system.cpu: Post execute machcode = e2844001 pc = 16410
2764000: system.cpu: Post execute machcode = e4963004 pc = 16414
2764500: system.cpu: Post execute machcode = e4963004 pc = 16414
2765000: system.cpu: Post execute a function CALL machcode = 1e12fff33 pc = 16418 currentCallNum is 86
2765500: system.cpu: Post execute machcode = 3e92d4ff0 pc = 1ce5c
2766000: system.cpu: Post execute machcode = 3e92d4ff0 pc = 1ce5c
2766500: system.cpu: Post execute machcode = 3e92d4ff0 pc = 1ce5c
2767000: system.cpu: Post execute machcode = 3e92d4ff0 pc = 1ce5c
2767500: system.cpu: Post execute machcode = 3e92d4ff0 pc = 1ce5c
2768000: system.cpu: Post execute machcode = 3e92d4ff0 pc = 1ce5c
2768500: system.cpu: Post execute machcode = 3e92d4ff0 pc = 1ce5c
2769000: system.cpu: Post execute machcode = 3e92d4ff0 pc = 1ce5c
2769500: system.cpu: Post execute machcode = 3e92d4ff0 pc = 1ce5c
2770000: system.cpu: Post execute machcode = 3e92d4ff0 pc = 1ce5c
2770500: system.cpu: Post execute machcode = e3a00000 pc = 1ce60
2771000: system.cpu: Post execute machcode = e24dd00c pc = 1ce64
2771500: system.cpu: Post execute a function CALL machcode = ebffff22 pc = 1ce68 currentCallNum is 87
2772000: system.cpu: Post execute machcode = 3e92d4ff0 pc = 1caf8
2772500: system.cpu: Post execute machcode = 3e92d4ff0 pc = 1caf8
2773000: system.cpu: Post execute machcode = 3e92d4ff0 pc = 1caf8
2773500: system.cpu: Post execute machcode = 3e92d4ff0 pc = 1caf8
2774000: system.cpu: Post execute machcode = 3e92d4ff0 pc = 1caf8
2774500: system.cpu: Post execute machcode = 3e92d4ff0 pc = 1caf8
2775000: system.cpu: Post execute machcode = 3e92d4ff0 pc = 1caf8
2775500: system.cpu: Post execute machcode = 3e92d4ff0 pc = 1caf8
2776000: system.cpu: Post execute machcode = 3e92d4ff0 pc = 1caf8
2776500: system.cpu: Post execute machcode = 3e92d4ff0 pc = 1caf8
2777000: system.cpu: Post execute machcode = e2508000 pc = 1cafc
2777500: system.cpu: Post execute machcode = e24dd024 pc = 1cb00
2778000: system.cpu: Post execute machcode = a000087 pc = 1cb04
2778500: system.cpu: Post execute machcode = e59f3124 pc = 1cd28
2779000: system.cpu: Post execute machcode = e59f611c pc = 1cd2c
2779500: system.cpu: Post execute machcode = e5935000 pc = 1cd30
2780000: system.cpu: Post execute machcode = e58d3008 pc = 1cd34
2780500: system.cpu: Post execute machcode = e3550000 pc = 1cd38
2781000: system.cpu: Post execute machcode = e5969018 pc = 1cd3c
2781500: system.cpu: Post execute machcode = 158d800c pc = 1cd40
2782000: system.cpu: Post execute machcode = 21affff98 pc = 1cd44
2782500: system.cpu: Post execute machcode = e3a03000 pc = 1cbac
2783000: system.cpu: Post execute machcode = e58d3004 pc = 1cbb0
2783500: system.cpu: Post execute machcode = e1a0a003 pc = 1cbb4
2784000: system.cpu: Post execute machcode = ea000033 pc = 1cbb8
2784500: system.cpu: Post execute machcode = e3580000 pc = 1cc8c
2785000: system.cpu: Post execute machcode = e5865000 pc = 1cc90
2785500: system.cpu: Post execute machcode = a00001b pc = 1cc94
2786000: system.cpu: Post execute machcode = e595306c pc = 1cd08
2786500: system.cpu: Post execute machcode = e3530000 pc = 1cd0c
2787000: system.cpu: Post execute machcode = caffffa9 pc = 1cd10
2787500: system.cpu: Post execute machcode = e5952014 pc = 1cd14
2788000: system.cpu: Post execute machcode = e5953010 pc = 1cd18
2788500: system.cpu: Post execute machcode = e1520003 pc = 1cd1c
2789000: system.cpu: Post execute machcode = 8affffaa pc = 1cd20
2789500: system.cpu: Post execute machcode = 2eaffffb2 pc = 1cd24
2790000: system.cpu: Post execute machcode = e3580000 pc = 1cbf4
2790500: system.cpu: Post execute machcode = a00001a pc = 1cbf8
2791000: system.cpu: Post execute machcode = e5963018 pc = 1cc68
2791500: system.cpu: Post execute machcode = e586a000 pc = 1cc6c
2792000: system.cpu: Post execute machcode = e1530009 pc = 1cc70
2792500: system.cpu: Post execute machcode = 159d2008 pc = 1cc74
2793000: system.cpu: Post execute machcode = 5955034 pc = 1cc78
2793500: system.cpu: Post execute machcode = 15925000 pc = 1cc7c
2794000: system.cpu: Post execute machcode = e3550000 pc = 1cc80
2794500: system.cpu: Post execute machcode = a000031 pc = 1cc84
2795000: system.cpu: Post execute machcode = e1a09003 pc = 1cc88
2795500: system.cpu: Post execute machcode = e3580000 pc = 1cc8c
2796000: system.cpu: Post execute machcode = e5865000 pc = 1cc90
2796500: system.cpu: Post execute machcode = a00001b pc = 1cc94
2797000: system.cpu: Post execute machcode = e595306c pc = 1cd08
2797500: system.cpu: Post execute machcode = e3530000 pc = 1cd0c
2798000: system.cpu: Post execute machcode = caffffa9 pc = 1cd10
2798500: system.cpu: Post execute machcode = e5952014 pc = 1cd14
2799000: system.cpu: Post execute machcode = e5953010 pc = 1cd18
2799500: system.cpu: Post execute machcode = e1520003 pc = 1cd1c
2800000: system.cpu: Post execute machcode = 8affffaa pc = 1cd20
2800500: system.cpu: Post execute machcode = 2eaffffb2 pc = 1cd24
2801000: system.cpu: Post execute machcode = e3580000 pc = 1cbf4
2801500: system.cpu: Post execute machcode = a00001a pc = 1cbf8
2802000: system.cpu: Post execute machcode = e5963018 pc = 1cc68
2802500: system.cpu: Post execute machcode = e586a000 pc = 1cc6c
2803000: system.cpu: Post execute machcode = e1530009 pc = 1cc70
2803500: system.cpu: Post execute machcode = 159d2008 pc = 1cc74
2804000: system.cpu: Post execute machcode = 5955034 pc = 1cc78
2804500: system.cpu: Post execute machcode = 15925000 pc = 1cc7c
2805000: system.cpu: Post execute machcode = e3550000 pc = 1cc80
2805500: system.cpu: Post execute machcode = a000031 pc = 1cc84
2806000: system.cpu: Post execute machcode = e1a09003 pc = 1cc88
2806500: system.cpu: Post execute machcode = e3580000 pc = 1cc8c
2807000: system.cpu: Post execute machcode = e5865000 pc = 1cc90
2807500: system.cpu: Post execute machcode = a00001b pc = 1cc94
2808000: system.cpu: Post execute machcode = e595306c pc = 1cd08
2808500: system.cpu: Post execute machcode = e3530000 pc = 1cd0c
2809000: system.cpu: Post execute machcode = caffffa9 pc = 1cd10
2809500: system.cpu: Post execute machcode = e5952014 pc = 1cd14
2810000: system.cpu: Post execute machcode = e5953010 pc = 1cd18
2810500: system.cpu: Post execute machcode = e1520003 pc = 1cd1c
2811000: system.cpu: Post execute machcode = 8affffaa pc = 1cd20
2811500: system.cpu: Post execute machcode = 2eaffffb2 pc = 1cd24
2812000: system.cpu: Post execute machcode = e3580000 pc = 1cbf4
2812500: system.cpu: Post execute machcode = a00001a pc = 1cbf8
2813000: system.cpu: Post execute machcode = e5963018 pc = 1cc68
2813500: system.cpu: Post execute machcode = e586a000 pc = 1cc6c
2814000: system.cpu: Post execute machcode = e1530009 pc = 1cc70
2814500: system.cpu: Post execute machcode = 159d2008 pc = 1cc74
2815000: system.cpu: Post execute machcode = 5955034 pc = 1cc78
2815500: system.cpu: Post execute machcode = 15925000 pc = 1cc7c
2816000: system.cpu: Post execute machcode = e3550000 pc = 1cc80
2816500: system.cpu: Post execute machcode = a000031 pc = 1cc84
2817000: system.cpu: Post execute machcode = e3580000 pc = 1cd50
2817500: system.cpu: Post execute machcode = a000018 pc = 1cd54
2818000: system.cpu: Post execute machcode = e59d300c pc = 1cdbc
2818500: system.cpu: Post execute machcode = e3530000 pc = 1cdc0
2819000: system.cpu: Post execute machcode = a000002 pc = 1cdc4
2819500: system.cpu: Post execute machcode = e59d0004 pc = 1cdd4
2820000: system.cpu: Post execute machcode = e28dd024 pc = 1cdd8
2820500: system.cpu: Post execute machcode = 2e8bd8ff0 pc = 1cddc
2821000: system.cpu: Post execute machcode = 2e8bd8ff0 pc = 1cddc
2821500: system.cpu: Post execute machcode = 2e8bd8ff0 pc = 1cddc
2822000: system.cpu: Post execute machcode = 2e8bd8ff0 pc = 1cddc
2822500: system.cpu: Post execute machcode = 2e8bd8ff0 pc = 1cddc
2823000: system.cpu: Post execute machcode = 2e8bd8ff0 pc = 1cddc
2823500: system.cpu: Post execute a function RETURN machcode = 2e8bd8ff0 pc = 1cddc currentRetnNum is 112
2824000: system.cpu: Post execute machcode = 2e59f31d0 pc = 1ce6c
2824500: system.cpu: Post execute machcode = e58d0004 pc = 1ce70
2825000: system.cpu: Post execute machcode = e5935000 pc = 1ce74
2825500: system.cpu: Post execute machcode = e3550000 pc = 1ce78
2826000: system.cpu: Post execute machcode = a000048 pc = 1ce7c
2826500: system.cpu: Post execute machcode = e3a0a001 pc = 1ce80
2827000: system.cpu: Post execute machcode = e3a09000 pc = 1ce84
2827500: system.cpu: Post execute machcode = e3e08000 pc = 1ce88
2828000: system.cpu: Post execute machcode = 2e59fb1b4 pc = 1ce8c
2828500: system.cpu: Post execute machcode = ea000023 pc = 1ce90
2829000: system.cpu: Post execute machcode = e5953000 pc = 1cf24
2829500: system.cpu: Post execute machcode = e2136002 pc = 1cf28
2830000: system.cpu: Post execute machcode = 21afffff8 pc = 1cf2c
2830500: system.cpu: Post execute machcode = e585806c pc = 1cf14
2831000: system.cpu: Post execute machcode = e5955034 pc = 1cf18
2831500: system.cpu: Post execute machcode = e3550000 pc = 1cf1c
2832000: system.cpu: Post execute machcode = a00001f pc = 1cf20
2832500: system.cpu: Post execute machcode = e5953000 pc = 1cf24
2833000: system.cpu: Post execute machcode = e2136002 pc = 1cf28
2833500: system.cpu: Post execute machcode = 21afffff8 pc = 1cf2c
2834000: system.cpu: Post execute machcode = e595306c pc = 1cf30
2834500: system.cpu: Post execute machcode = e3530000 pc = 1cf34
2835000: system.cpu: Post execute machcode = 20afffff5 pc = 1cf38
2835500: system.cpu: Post execute machcode = e585806c pc = 1cf14
2836000: system.cpu: Post execute machcode = e5955034 pc = 1cf18
2836500: system.cpu: Post execute machcode = e3550000 pc = 1cf1c
2837000: system.cpu: Post execute machcode = a00001f pc = 1cf20
2837500: system.cpu: Post execute machcode = e5953000 pc = 1cf24
2838000: system.cpu: Post execute machcode = e2136002 pc = 1cf28
2838500: system.cpu: Post execute machcode = 21afffff8 pc = 1cf2c
2839000: system.cpu: Post execute machcode = e595306c pc = 1cf30
2839500: system.cpu: Post execute machcode = e3530000 pc = 1cf34
2840000: system.cpu: Post execute machcode = 20afffff5 pc = 1cf38
2840500: system.cpu: Post execute machcode = e585806c pc = 1cf14
2841000: system.cpu: Post execute machcode = e5955034 pc = 1cf18
2841500: system.cpu: Post execute machcode = e3550000 pc = 1cf1c
2842000: system.cpu: Post execute machcode = a00001f pc = 1cf20
2842500: system.cpu: Post execute machcode = e59d0004 pc = 1cfa4
2843000: system.cpu: Post execute machcode = e28dd00c pc = 1cfa8
2843500: system.cpu: Post execute machcode = 2e8bd8ff0 pc = 1cfac
2844000: system.cpu: Post execute machcode = 2e8bd8ff0 pc = 1cfac
2844500: system.cpu: Post execute machcode = 2e8bd8ff0 pc = 1cfac
2845000: system.cpu: Post execute machcode = 2e8bd8ff0 pc = 1cfac
2845500: system.cpu: Post execute machcode = 2e8bd8ff0 pc = 1cfac
2846000: system.cpu: Post execute machcode = 2e8bd8ff0 pc = 1cfac
2846500: system.cpu: Post execute a function RETURN machcode = 2e8bd8ff0 pc = 1cfac currentRetnNum is 113
2847000: system.cpu: Post execute machcode = e1540007 pc = 1641c
2847500: system.cpu: Post execute machcode = 21afffffa pc = 16420
2848000: system.cpu: Post execute machcode = e1a00005 pc = 16424
2848500: system.cpu: Post execute a function CALL machcode = 1eb004289 pc = 16428 currentCallNum is 88
2849000: system.cpu: Post execute machcode = 1e92d4080 pc = 26e54
2849500: system.cpu: Post execute machcode = 1e92d4080 pc = 26e54
2850000: system.cpu: Post execute machcode = 1e92d4080 pc = 26e54
2850500: system.cpu: Post execute machcode = e1a02000 pc = 26e58
2851000: system.cpu: Post execute machcode = 2e3a070f8 pc = 26e5c
2851500: system.cpu: Post execute machcode = 1ef000000 pc = 26e60
Exiting @ tick 2851500 because exiting with last active thread context
