gem5 Simulator System.  http://gem5.org
gem5 is copyrighted software; use the --copyright option for details.

gem5 compiled Apr 15 2018 15:09:55
gem5 started Apr 15 2018 15:11:37
gem5 executing on ubuntu, pid 13648
command line: ../build/ARM/gem5.opt --debug-flag=SimpleCallReturn --outdir=../Output/atomic/hello ../configs/example/se.py --cmd=../tests/test-progs/hello/bin/arm/linux/hello --cpu-type=AtomicSimpleCPU

Global frequency set at 1000000000000 ticks per second
**** REAL SIMULATION ****
      0: system.cpu: Post execute machcode = e59fc024 pc = 8150
    500: system.cpu: Post execute machcode = e3a0b000 pc = 8154
   1000: system.cpu: Post execute machcode = e49d1004 pc = 8158
   1500: system.cpu: Post execute machcode = e49d1004 pc = 8158
   2000: system.cpu: Post execute machcode = e1a0200d pc = 815c
   2500: system.cpu: Post execute machcode = 1e52d2004 pc = 8160
   3000: system.cpu: Post execute machcode = 1e52d2004 pc = 8160
   3500: system.cpu: Post execute machcode = 1e52d0004 pc = 8164
   4000: system.cpu: Post execute machcode = 1e52d0004 pc = 8164
   4500: system.cpu: Post execute machcode = e59f0010 pc = 8168
   5000: system.cpu: Post execute machcode = e59f3010 pc = 816c
   5500: system.cpu: Post execute machcode = 1e52dc004 pc = 8170
   6000: system.cpu: Post execute machcode = 1e52dc004 pc = 8170
   6500: system.cpu: Post execute a function CALL machcode = 1eb00003c pc = 8174 currentCallNum is 1
   7000: system.cpu: Post execute machcode = 2e59fc298 pc = 826c
   7500: system.cpu: Post execute machcode = 3e92d41f0 pc = 8270
   8000: system.cpu: Post execute machcode = 3e92d41f0 pc = 8270
   8500: system.cpu: Post execute machcode = 3e92d41f0 pc = 8270
   9000: system.cpu: Post execute machcode = 3e92d41f0 pc = 8270
   9500: system.cpu: Post execute machcode = 3e92d41f0 pc = 8270
  10000: system.cpu: Post execute machcode = 3e92d41f0 pc = 8270
  10500: system.cpu: Post execute machcode = 3e92d41f0 pc = 8270
  11000: system.cpu: Post execute machcode = e35c0000 pc = 8274
  11500: system.cpu: Post execute machcode = e24dde13 pc = 8278
  12000: system.cpu: Post execute machcode = e1a06003 pc = 827c
  12500: system.cpu: Post execute machcode = e58d2004 pc = 8280
  13000: system.cpu: Post execute machcode = e58d000c pc = 8284
  13500: system.cpu: Post execute machcode = e58d1008 pc = 8288
  14000: system.cpu: Post execute machcode = e59d8148 pc = 828c
  14500: system.cpu: Post execute machcode = e59d714c pc = 8290
  15000: system.cpu: Post execute machcode = 1a0200c pc = 8294
  15500: system.cpu: Post execute machcode = 1a00007d pc = 8298
  16000: system.cpu: Post execute machcode = e59d3008 pc = 829c
  16500: system.cpu: Post execute machcode = e59f0268 pc = 82a0
  17000: system.cpu: Post execute machcode = e2831001 pc = 82a4
  17500: system.cpu: Post execute machcode = e59d3004 pc = 82a8
  18000: system.cpu: Post execute machcode = e1a01101 pc = 82ac
  18500: system.cpu: Post execute machcode = e0831001 pc = 82b0
  19000: system.cpu: Post execute machcode = e59f3258 pc = 82b4
  19500: system.cpu: Post execute machcode = e1a0c001 pc = 82b8
  20000: system.cpu: Post execute machcode = e5832000 pc = 82bc
  20500: system.cpu: Post execute machcode = e59d3150 pc = 82c0
  21000: system.cpu: Post execute machcode = e59f224c pc = 82c4
  21500: system.cpu: Post execute machcode = e5803000 pc = 82c8
  22000: system.cpu: Post execute machcode = e5821000 pc = 82cc
  22500: system.cpu: Post execute machcode = e49c3004 pc = 82d0
  23000: system.cpu: Post execute machcode = e49c3004 pc = 82d0
  23500: system.cpu: Post execute machcode = e3530000 pc = 82d4
  24000: system.cpu: Post execute machcode = 21afffffc pc = 82d8
  24500: system.cpu: Post execute machcode = e1a0000c pc = 82dc
  25000: system.cpu: Post execute a function CALL machcode = 1eb003043 pc = 82e0 currentCallNum is 2
  25500: system.cpu: Post execute machcode = e5903000 pc = 143f4
  26000: system.cpu: Post execute machcode = 3e92d0ff0 pc = 143f8
  26500: system.cpu: Post execute machcode = 3e92d0ff0 pc = 143f8
  27000: system.cpu: Post execute machcode = 3e92d0ff0 pc = 143f8
  27500: system.cpu: Post execute machcode = 3e92d0ff0 pc = 143f8
  28000: system.cpu: Post execute machcode = 3e92d0ff0 pc = 143f8
  28500: system.cpu: Post execute machcode = 3e92d0ff0 pc = 143f8
  29000: system.cpu: Post execute machcode = 3e92d0ff0 pc = 143f8
  29500: system.cpu: Post execute machcode = 3e92d0ff0 pc = 143f8
  30000: system.cpu: Post execute machcode = 3e92d0ff0 pc = 143f8
  30500: system.cpu: Post execute machcode = e3530000 pc = 143fc
  31000: system.cpu: Post execute machcode = e24dd008 pc = 14400
  31500: system.cpu: Post execute machcode = a00005d pc = 14404
  32000: system.cpu: Post execute machcode = e59f126c pc = 14408
  32500: system.cpu: Post execute machcode = e59f426c pc = 1440c
  33000: system.cpu: Post execute machcode = e3a02000 pc = 14410
  33500: system.cpu: Post execute machcode = e5915000 pc = 14414
  34000: system.cpu: Post execute machcode = e59f1264 pc = 14418
  34500: system.cpu: Post execute machcode = e5946004 pc = 1441c
  35000: system.cpu: Post execute machcode = e2800008 pc = 14420
  35500: system.cpu: Post execute machcode = e5911000 pc = 14424
  36000: system.cpu: Post execute machcode = e1a0c002 pc = 14428
  36500: system.cpu: Post execute machcode = e58d1004 pc = 1442c
  37000: system.cpu: Post execute machcode = e59f1250 pc = 14430
  37500: system.cpu: Post execute machcode = e591b000 pc = 14434
  38000: system.cpu: Post execute machcode = e5941000 pc = 14438
  38500: system.cpu: Post execute machcode = e58d1000 pc = 1443c
  39000: system.cpu: Post execute machcode = e59f1244 pc = 14440
  39500: system.cpu: Post execute machcode = e5919000 pc = 14444
  40000: system.cpu: Post execute machcode = e59f1240 pc = 14448
  40500: system.cpu: Post execute machcode = e591a000 pc = 1444c
  41000: system.cpu: Post execute machcode = e59f123c pc = 14450
  41500: system.cpu: Post execute machcode = e5918000 pc = 14454
  42000: system.cpu: Post execute machcode = e59f1238 pc = 14458
  42500: system.cpu: Post execute machcode = e5917000 pc = 1445c
  43000: system.cpu: Post execute machcode = e1a01002 pc = 14460
  43500: system.cpu: Post execute machcode = e2433003 pc = 14464
  44000: system.cpu: Post execute machcode = e353001e pc = 14468
  44500: system.cpu: Post execute machcode = 979ff103 pc = 1446c
  45000: system.cpu: Post execute machcode = e5103004 pc = 145b4
  45500: system.cpu: Post execute machcode = e3a06000 pc = 145b8
  46000: system.cpu: Post execute machcode = e58d3000 pc = 145bc
  46500: system.cpu: Post execute machcode = e4903008 pc = 145c0
  47000: system.cpu: Post execute machcode = e4903008 pc = 145c0
  47500: system.cpu: Post execute machcode = e3530000 pc = 145c4
  48000: system.cpu: Post execute machcode = 1affffa5 pc = 145c8
  48500: system.cpu: Post execute machcode = e2433003 pc = 14464
  49000: system.cpu: Post execute machcode = e353001e pc = 14468
  49500: system.cpu: Post execute machcode = 979ff103 pc = 1446c
  50000: system.cpu: Post execute machcode = e5108004 pc = 145a0
  50500: system.cpu: Post execute machcode = e4903008 pc = 145a4
  51000: system.cpu: Post execute machcode = e4903008 pc = 145a4
  51500: system.cpu: Post execute machcode = e3530000 pc = 145a8
  52000: system.cpu: Post execute machcode = 1affffac pc = 145ac
  52500: system.cpu: Post execute machcode = e2433003 pc = 14464
  53000: system.cpu: Post execute machcode = e353001e pc = 14468
  53500: system.cpu: Post execute machcode = 979ff103 pc = 1446c
  54000: system.cpu: Post execute machcode = e5102004 pc = 144f0
  54500: system.cpu: Post execute machcode = e3a05001 pc = 144f4
  55000: system.cpu: Post execute machcode = e58d2004 pc = 144f8
  55500: system.cpu: Post execute machcode = e3e02000 pc = 144fc
  56000: system.cpu: Post execute machcode = e4903008 pc = 14500
  56500: system.cpu: Post execute machcode = e4903008 pc = 14500
  57000: system.cpu: Post execute machcode = e3530000 pc = 14504
  57500: system.cpu: Post execute machcode = 21affffd5 pc = 14508
  58000: system.cpu: Post execute machcode = e2433003 pc = 14464
  58500: system.cpu: Post execute machcode = e353001e pc = 14468
  59000: system.cpu: Post execute machcode = 979ff103 pc = 1446c
  59500: system.cpu: Post execute machcode = e4903008 pc = 14500
  60000: system.cpu: Post execute machcode = e4903008 pc = 14500
  60500: system.cpu: Post execute machcode = e3530000 pc = 14504
  61000: system.cpu: Post execute machcode = 21affffd5 pc = 14508
  61500: system.cpu: Post execute machcode = e2433003 pc = 14464
  62000: system.cpu: Post execute machcode = e353001e pc = 14468
  62500: system.cpu: Post execute machcode = 979ff103 pc = 1446c
  63000: system.cpu: Post execute machcode = e4903008 pc = 14500
  63500: system.cpu: Post execute machcode = e4903008 pc = 14500
  64000: system.cpu: Post execute machcode = e3530000 pc = 14504
  64500: system.cpu: Post execute machcode = 21affffd5 pc = 14508
  65000: system.cpu: Post execute machcode = e2433003 pc = 14464
  65500: system.cpu: Post execute machcode = e353001e pc = 14468
  66000: system.cpu: Post execute machcode = 979ff103 pc = 1446c
  66500: system.cpu: Post execute machcode = e4903008 pc = 14500
  67000: system.cpu: Post execute machcode = e4903008 pc = 14500
  67500: system.cpu: Post execute machcode = e3530000 pc = 14504
  68000: system.cpu: Post execute machcode = 21affffd5 pc = 14508
  68500: system.cpu: Post execute machcode = e2433003 pc = 14464
  69000: system.cpu: Post execute machcode = e353001e pc = 14468
  69500: system.cpu: Post execute machcode = 979ff103 pc = 1446c
  70000: system.cpu: Post execute machcode = e5107004 pc = 14640
  70500: system.cpu: Post execute machcode = e4903008 pc = 14644
  71000: system.cpu: Post execute machcode = e4903008 pc = 14644
  71500: system.cpu: Post execute machcode = e3530000 pc = 14648
  72000: system.cpu: Post execute machcode = 1affff84 pc = 1464c
  72500: system.cpu: Post execute machcode = e2433003 pc = 14464
  73000: system.cpu: Post execute machcode = e353001e pc = 14468
  73500: system.cpu: Post execute machcode = 979ff103 pc = 1446c
  74000: system.cpu: Post execute machcode = e510a004 pc = 14668
  74500: system.cpu: Post execute machcode = e4903008 pc = 1466c
  75000: system.cpu: Post execute machcode = e4903008 pc = 1466c
  75500: system.cpu: Post execute machcode = e3530000 pc = 14670
  76000: system.cpu: Post execute machcode = 1affff7a pc = 14674
  76500: system.cpu: Post execute machcode = e2433003 pc = 14464
  77000: system.cpu: Post execute machcode = e353001e pc = 14468
  77500: system.cpu: Post execute machcode = 979ff103 pc = 1446c
  78000: system.cpu: Post execute machcode = e4903008 pc = 14500
  78500: system.cpu: Post execute machcode = e4903008 pc = 14500
  79000: system.cpu: Post execute machcode = e3530000 pc = 14504
  79500: system.cpu: Post execute machcode = 21affffd5 pc = 14508
  80000: system.cpu: Post execute machcode = e2433003 pc = 14464
  80500: system.cpu: Post execute machcode = e353001e pc = 14468
  81000: system.cpu: Post execute machcode = 979ff103 pc = 1446c
  81500: system.cpu: Post execute machcode = e5109004 pc = 14654
  82000: system.cpu: Post execute machcode = e4903008 pc = 14658
  82500: system.cpu: Post execute machcode = e4903008 pc = 14658
  83000: system.cpu: Post execute machcode = e3530000 pc = 1465c
  83500: system.cpu: Post execute machcode = 1affff7f pc = 14660
  84000: system.cpu: Post execute machcode = e2433003 pc = 14464
  84500: system.cpu: Post execute machcode = e353001e pc = 14468
  85000: system.cpu: Post execute machcode = 979ff103 pc = 1446c
  85500: system.cpu: Post execute machcode = e4903008 pc = 14500
  86000: system.cpu: Post execute machcode = e4903008 pc = 14500
  86500: system.cpu: Post execute machcode = e3530000 pc = 14504
  87000: system.cpu: Post execute machcode = 21affffd5 pc = 14508
  87500: system.cpu: Post execute machcode = e2433003 pc = 14464
  88000: system.cpu: Post execute machcode = e353001e pc = 14468
  88500: system.cpu: Post execute machcode = 979ff103 pc = 1446c
  89000: system.cpu: Post execute machcode = e4903008 pc = 14500
  89500: system.cpu: Post execute machcode = e4903008 pc = 14500
  90000: system.cpu: Post execute machcode = e3530000 pc = 14504
  90500: system.cpu: Post execute machcode = 21affffd5 pc = 14508
  91000: system.cpu: Post execute machcode = e2433003 pc = 14464
  91500: system.cpu: Post execute machcode = e353001e pc = 14468
  92000: system.cpu: Post execute machcode = 979ff103 pc = 1446c
  92500: system.cpu: Post execute machcode = e4903008 pc = 14500
  93000: system.cpu: Post execute machcode = e4903008 pc = 14500
  93500: system.cpu: Post execute machcode = e3530000 pc = 14504
  94000: system.cpu: Post execute machcode = 21affffd5 pc = 14508
  94500: system.cpu: Post execute machcode = e2433003 pc = 14464
  95000: system.cpu: Post execute machcode = e353001e pc = 14468
  95500: system.cpu: Post execute machcode = 979ff103 pc = 1446c
  96000: system.cpu: Post execute machcode = e5103004 pc = 14624
  96500: system.cpu: Post execute machcode = e3822001 pc = 14628
  97000: system.cpu: Post execute machcode = e02cc003 pc = 1462c
  97500: system.cpu: Post execute machcode = e4903008 pc = 14630
  98000: system.cpu: Post execute machcode = e4903008 pc = 14630
  98500: system.cpu: Post execute machcode = e3530000 pc = 14634
  99000: system.cpu: Post execute machcode = 1affff89 pc = 14638
  99500: system.cpu: Post execute machcode = e2433003 pc = 14464
 100000: system.cpu: Post execute machcode = e353001e pc = 14468
 100500: system.cpu: Post execute machcode = 979ff103 pc = 1446c
 101000: system.cpu: Post execute machcode = e5103004 pc = 14608
 101500: system.cpu: Post execute machcode = e3822002 pc = 1460c
 102000: system.cpu: Post execute machcode = e02cc003 pc = 14610
 102500: system.cpu: Post execute machcode = e4903008 pc = 14614
 103000: system.cpu: Post execute machcode = e4903008 pc = 14614
 103500: system.cpu: Post execute machcode = e3530000 pc = 14618
 104000: system.cpu: Post execute machcode = 21affff90 pc = 1461c
 104500: system.cpu: Post execute machcode = e2433003 pc = 14464
 105000: system.cpu: Post execute machcode = e353001e pc = 14468
 105500: system.cpu: Post execute machcode = 979ff103 pc = 1446c
 106000: system.cpu: Post execute machcode = e5103004 pc = 145ec
 106500: system.cpu: Post execute machcode = e3822004 pc = 145f0
 107000: system.cpu: Post execute machcode = e0211003 pc = 145f4
 107500: system.cpu: Post execute machcode = e4903008 pc = 145f8
 108000: system.cpu: Post execute machcode = e4903008 pc = 145f8
 108500: system.cpu: Post execute machcode = e3530000 pc = 145fc
 109000: system.cpu: Post execute machcode = 21affff97 pc = 14600
 109500: system.cpu: Post execute machcode = e2433003 pc = 14464
 110000: system.cpu: Post execute machcode = e353001e pc = 14468
 110500: system.cpu: Post execute machcode = 979ff103 pc = 1446c
 111000: system.cpu: Post execute machcode = e5103004 pc = 145d0
 111500: system.cpu: Post execute machcode = e3822008 pc = 145d4
 112000: system.cpu: Post execute machcode = e0211003 pc = 145d8
 112500: system.cpu: Post execute machcode = e4903008 pc = 145dc
 113000: system.cpu: Post execute machcode = e4903008 pc = 145dc
 113500: system.cpu: Post execute machcode = e3530000 pc = 145e0
 114000: system.cpu: Post execute machcode = 21affff9e pc = 145e4
 114500: system.cpu: Post execute machcode = eaffffc7 pc = 145e8
 115000: system.cpu: Post execute machcode = e59f3168 pc = 1450c
 115500: system.cpu: Post execute machcode = e352000f pc = 14510
 116000: system.cpu: Post execute machcode = e59f2168 pc = 14514
 116500: system.cpu: Post execute machcode = e5835000 pc = 14518
 117000: system.cpu: Post execute machcode = e59d3004 pc = 1451c
 117500: system.cpu: Post execute machcode = e5846004 pc = 14520
 118000: system.cpu: Post execute machcode = e5823000 pc = 14524
 118500: system.cpu: Post execute machcode = e59f2158 pc = 14528
 119000: system.cpu: Post execute machcode = e59f3158 pc = 1452c
 119500: system.cpu: Post execute machcode = e582b000 pc = 14530
 120000: system.cpu: Post execute machcode = e5839000 pc = 14534
 120500: system.cpu: Post execute machcode = e59f2150 pc = 14538
 121000: system.cpu: Post execute machcode = e59f3150 pc = 1453c
 121500: system.cpu: Post execute machcode = e582a000 pc = 14540
 122000: system.cpu: Post execute machcode = e5838000 pc = 14544
 122500: system.cpu: Post execute machcode = e59f2148 pc = 14548
 123000: system.cpu: Post execute machcode = e59d3000 pc = 1454c
 123500: system.cpu: Post execute machcode = e5827000 pc = 14550
 124000: system.cpu: Post execute machcode = e5843000 pc = 14554
 124500: system.cpu: Post execute machcode = 1a000008 pc = 14558
 125000: system.cpu: Post execute machcode = e28dd008 pc = 14580
 125500: system.cpu: Post execute machcode = 2e8bd0ff0 pc = 14584
 126000: system.cpu: Post execute machcode = 2e8bd0ff0 pc = 14584
 126500: system.cpu: Post execute machcode = 2e8bd0ff0 pc = 14584
 127000: system.cpu: Post execute machcode = 2e8bd0ff0 pc = 14584
 127500: system.cpu: Post execute machcode = 2e8bd0ff0 pc = 14584
 128000: system.cpu: Post execute a function RETURN machcode = 1e12fff1e pc = 14588 currentRetnNum is 1
 128500: system.cpu: Post execute machcode = e59f3228 pc = 82e4
 129000: system.cpu: Post execute machcode = e5932000 pc = 82e8
 129500: system.cpu: Post execute machcode = e3520000 pc = 82ec
 130000: system.cpu: Post execute machcode = 1a00000c pc = 82f0
 130500: system.cpu: Post execute a function CALL machcode = 3eb0032d8 pc = 82f4 currentCallNum is 3
 131000: system.cpu: Post execute machcode = 1e92d4070 pc = 14e5c
 131500: system.cpu: Post execute machcode = 1e92d4070 pc = 14e5c
 132000: system.cpu: Post execute machcode = 1e92d4070 pc = 14e5c
 132500: system.cpu: Post execute machcode = 1e92d4070 pc = 14e5c
 133000: system.cpu: Post execute machcode = 1e92d4070 pc = 14e5c
 133500: system.cpu: Post execute machcode = e24ddf72 pc = 14e60
 134000: system.cpu: Post execute machcode = e28d0004 pc = 14e64
 134500: system.cpu: Post execute machcode = e2400002 pc = 14e68
 135000: system.cpu: Post execute a function CALL machcode = 3eb0074fb pc = 14e6c currentCallNum is 4
 135500: system.cpu: Post execute machcode = e1a0c007 pc = 32260
 136000: system.cpu: Post execute machcode = e3a0707a pc = 32264
 136500: system.cpu: Post execute machcode = 1ef000000 pc = 32268
 137000: system.cpu: Post execute machcode = e1a0700c pc = 3226c
 137500: system.cpu: Post execute machcode = e3700a01 pc = 32270
 138000: system.cpu: Post execute a function RETURN machcode = 1312fff1e pc = 32274 currentRetnNum is 2
 138500: system.cpu: Post execute machcode = e3500000 pc = 14e70
 139000: system.cpu: Post execute machcode = 28d1084 pc = 14e74
 139500: system.cpu: Post execute machcode = 1a00001e pc = 14e78
 140000: system.cpu: Post execute machcode = e3a00000 pc = 14e7c
 140500: system.cpu: Post execute machcode = e1a0c001 pc = 14e80
 141000: system.cpu: Post execute machcode = e1a0e000 pc = 14e84
 141500: system.cpu: Post execute machcode = e5dc3000 pc = 14e88
 142000: system.cpu: Post execute machcode = e2433030 pc = 14e8c
 142500: system.cpu: Post execute machcode = 2e20320ff pc = 14e90
 143000: system.cpu: Post execute machcode = e3520009 pc = 14e94
 143500: system.cpu: Post execute machcode = 8a00001e pc = 14e98
 144000: system.cpu: Post execute machcode = e5dc1001 pc = 14e9c
 144500: system.cpu: Post execute machcode = e1a02003 pc = 14ea0
 145000: system.cpu: Post execute machcode = e2413030 pc = 14ea4
 145500: system.cpu: Post execute machcode = e3530009 pc = 14ea8
 146000: system.cpu: Post execute machcode = e28cc001 pc = 14eac
 146500: system.cpu: Post execute machcode = 8a000008 pc = 14eb0
 147000: system.cpu: Post execute machcode = e351002e pc = 14ed8
 147500: system.cpu: Post execute machcode = e1820400 pc = 14edc
 148000: system.cpu: Post execute machcode = e28ee001 pc = 14ee0
 148500: system.cpu: Post execute machcode = 1a00000b pc = 14ee4
 149000: system.cpu: Post execute machcode = e35e0003 pc = 14ee8
 149500: system.cpu: Post execute machcode = a000007 pc = 14eec
 150000: system.cpu: Post execute machcode = e28cc001 pc = 14ef0
 150500: system.cpu: Post execute machcode = eaffffe3 pc = 14ef4
 151000: system.cpu: Post execute machcode = e5dc3000 pc = 14e88
 151500: system.cpu: Post execute machcode = e2433030 pc = 14e8c
 152000: system.cpu: Post execute machcode = 2e20320ff pc = 14e90
 152500: system.cpu: Post execute machcode = e3520009 pc = 14e94
 153000: system.cpu: Post execute machcode = 8a00001e pc = 14e98
 153500: system.cpu: Post execute machcode = e5dc1001 pc = 14e9c
 154000: system.cpu: Post execute machcode = e1a02003 pc = 14ea0
 154500: system.cpu: Post execute machcode = e2413030 pc = 14ea4
 155000: system.cpu: Post execute machcode = e3530009 pc = 14ea8
 155500: system.cpu: Post execute machcode = e28cc001 pc = 14eac
 156000: system.cpu: Post execute machcode = 8a000008 pc = 14eb0
 156500: system.cpu: Post execute machcode = e351002e pc = 14ed8
 157000: system.cpu: Post execute machcode = e1820400 pc = 14edc
 157500: system.cpu: Post execute machcode = e28ee001 pc = 14ee0
 158000: system.cpu: Post execute machcode = 1a00000b pc = 14ee4
 158500: system.cpu: Post execute machcode = e35e0003 pc = 14ee8
 159000: system.cpu: Post execute machcode = a000007 pc = 14eec
 159500: system.cpu: Post execute machcode = e28cc001 pc = 14ef0
 160000: system.cpu: Post execute machcode = eaffffe3 pc = 14ef4
 160500: system.cpu: Post execute machcode = e5dc3000 pc = 14e88
 161000: system.cpu: Post execute machcode = e2433030 pc = 14e8c
 161500: system.cpu: Post execute machcode = 2e20320ff pc = 14e90
 162000: system.cpu: Post execute machcode = e3520009 pc = 14e94
 162500: system.cpu: Post execute machcode = 8a00001e pc = 14e98
 163000: system.cpu: Post execute machcode = e5dc1001 pc = 14e9c
 163500: system.cpu: Post execute machcode = e1a02003 pc = 14ea0
 164000: system.cpu: Post execute machcode = e2413030 pc = 14ea4
 164500: system.cpu: Post execute machcode = e3530009 pc = 14ea8
 165000: system.cpu: Post execute machcode = e28cc001 pc = 14eac
 165500: system.cpu: Post execute machcode = 8a000008 pc = 14eb0
 166000: system.cpu: Post execute machcode = e351002e pc = 14ed8
 166500: system.cpu: Post execute machcode = e1820400 pc = 14edc
 167000: system.cpu: Post execute machcode = e28ee001 pc = 14ee0
 167500: system.cpu: Post execute machcode = 1a00000b pc = 14ee4
 168000: system.cpu: Post execute machcode = e35e0002 pc = 14f18
 168500: system.cpu: Post execute machcode = d26e3003 pc = 14f1c
 169000: system.cpu: Post execute machcode = d1a03183 pc = 14f20
 169500: system.cpu: Post execute machcode = d1a00310 pc = 14f24
 170000: system.cpu: Post execute machcode = 2eafffff8 pc = 14f28
 170500: system.cpu: Post execute machcode = e28ddf72 pc = 14f10
 171000: system.cpu: Post execute machcode = e8bd8070 pc = 14f14
 171500: system.cpu: Post execute machcode = e8bd8070 pc = 14f14
 172000: system.cpu: Post execute machcode = e8bd8070 pc = 14f14
 172500: system.cpu: Post execute a function RETURN machcode = e8bd8070 pc = 14f14 currentRetnNum is 3
 173000: system.cpu: Post execute machcode = e3500000 pc = 82f8
 173500: system.cpu: Post execute machcode = ba000060 pc = 82fc
 174000: system.cpu: Post execute machcode = e59f3214 pc = 8300
 174500: system.cpu: Post execute machcode = e5933000 pc = 8304
 175000: system.cpu: Post execute machcode = e3530000 pc = 8308
 175500: system.cpu: Post execute machcode = 1a02000 pc = 830c
 176000: system.cpu: Post execute machcode = 1a000079 pc = 8310
 176500: system.cpu: Post execute machcode = e59f3200 pc = 8314
 177000: system.cpu: Post execute machcode = e5832000 pc = 8318
 177500: system.cpu: Post execute machcode = 2e59f31fc pc = 831c
 178000: system.cpu: Post execute machcode = e1500003 pc = 8320
 178500: system.cpu: Post execute machcode = da000054 pc = 8324
 179000: system.cpu: Post execute a function CALL machcode = 1eb000189 pc = 8328 currentCallNum is 5
 179500: system.cpu: Post execute machcode = e3a00008 pc = 8954
 180000: system.cpu: Post execute machcode = e3a01010 pc = 8958
 180500: system.cpu: Post execute machcode = eaffff6e pc = 895c
 181000: system.cpu: Post execute machcode = 2e59f31fc pc = 871c
 181500: system.cpu: Post execute machcode = 3e92d4ff0 pc = 8720
 182000: system.cpu: Post execute machcode = 3e92d4ff0 pc = 8720
 182500: system.cpu: Post execute machcode = 3e92d4ff0 pc = 8720
 183000: system.cpu: Post execute machcode = 3e92d4ff0 pc = 8720
 183500: system.cpu: Post execute machcode = 3e92d4ff0 pc = 8720
 184000: system.cpu: Post execute machcode = 3e92d4ff0 pc = 8720
 184500: system.cpu: Post execute machcode = 3e92d4ff0 pc = 8720
 185000: system.cpu: Post execute machcode = 3e92d4ff0 pc = 8720
 185500: system.cpu: Post execute machcode = 3e92d4ff0 pc = 8720
 186000: system.cpu: Post execute machcode = 3e92d4ff0 pc = 8720
 186500: system.cpu: Post execute machcode = e1a06001 pc = 8724
 187000: system.cpu: Post execute machcode = e5931000 pc = 8728
 187500: system.cpu: Post execute machcode = e24dd014 pc = 872c
 188000: system.cpu: Post execute machcode = e3510000 pc = 8730
 188500: system.cpu: Post execute machcode = e1a0e000 pc = 8734
 189000: system.cpu: Post execute machcode = a00001d pc = 8738
 189500: system.cpu: Post execute machcode = e59f21e0 pc = 873c
 190000: system.cpu: Post execute machcode = e5923000 pc = 8740
 190500: system.cpu: Post execute machcode = e1a03283 pc = 8744
 191000: system.cpu: Post execute machcode = e0812003 pc = 8748
 191500: system.cpu: Post execute machcode = e1510002 pc = 874c
 192000: system.cpu: Post execute machcode = 3a000003 pc = 8750
 192500: system.cpu: Post execute machcode = e5913000 pc = 8764
 193000: system.cpu: Post execute machcode = e3530007 pc = 8768
 193500: system.cpu: Post execute machcode = 21afffff9 pc = 876c
 194000: system.cpu: Post execute machcode = e2811020 pc = 8758
 194500: system.cpu: Post execute machcode = e1510002 pc = 875c
 195000: system.cpu: Post execute machcode = 2a000013 pc = 8760
 195500: system.cpu: Post execute machcode = e5913000 pc = 8764
 196000: system.cpu: Post execute machcode = e3530007 pc = 8768
 196500: system.cpu: Post execute machcode = 21afffff9 pc = 876c
 197000: system.cpu: Post execute machcode = e2811020 pc = 8758
 197500: system.cpu: Post execute machcode = e1510002 pc = 875c
 198000: system.cpu: Post execute machcode = 2a000013 pc = 8760
 198500: system.cpu: Post execute machcode = e5913000 pc = 8764
 199000: system.cpu: Post execute machcode = e3530007 pc = 8768
 199500: system.cpu: Post execute machcode = 21afffff9 pc = 876c
 200000: system.cpu: Post execute machcode = e2811020 pc = 8758
 200500: system.cpu: Post execute machcode = e1510002 pc = 875c
 201000: system.cpu: Post execute machcode = 2a000013 pc = 8760
 201500: system.cpu: Post execute machcode = e5913000 pc = 8764
 202000: system.cpu: Post execute machcode = e3530007 pc = 8768
 202500: system.cpu: Post execute machcode = 21afffff9 pc = 876c
 203000: system.cpu: Post execute machcode = e2811020 pc = 8758
 203500: system.cpu: Post execute machcode = e1510002 pc = 875c
 204000: system.cpu: Post execute machcode = 2a000013 pc = 8760
 204500: system.cpu: Post execute machcode = e5913000 pc = 8764
 205000: system.cpu: Post execute machcode = e3530007 pc = 8768
 205500: system.cpu: Post execute machcode = 21afffff9 pc = 876c
 206000: system.cpu: Post execute machcode = e591401c pc = 8770
 206500: system.cpu: Post execute machcode = e5912010 pc = 8774
 207000: system.cpu: Post execute machcode = e5918014 pc = 8778
 207500: system.cpu: Post execute machcode = e5911008 pc = 877c
 208000: system.cpu: Post execute machcode = e1560004 pc = 8780
 208500: system.cpu: Post execute machcode = 31a06004 pc = 8784
 209000: system.cpu: Post execute machcode = e3540000 pc = 8788
 209500: system.cpu: Post execute machcode = e58d2008 pc = 878c
 210000: system.cpu: Post execute machcode = e58d100c pc = 8790
 210500: system.cpu: Post execute machcode = a000009 pc = 8794
 211000: system.cpu: Post execute machcode = e2440001 pc = 8798
 211500: system.cpu: Post execute machcode = e080000e pc = 879c
 212000: system.cpu: Post execute machcode = e1a01004 pc = 87a0
 212500: system.cpu: Post execute a function CALL machcode = 1eb0169ae pc = 87a4 currentCallNum is 6
 213000: system.cpu: Post execute machcode = e2512001 pc = 62e64
 213500: system.cpu: Post execute a function RETURN machcode = 1012fff1e pc = 62e68 currentRetnNum is 4
 214000: system.cpu: Post execute machcode = 3a000074 pc = 62e6c
 214500: system.cpu: Post execute machcode = e1500001 pc = 62e70
 215000: system.cpu: Post execute machcode = 9a00006b pc = 62e74
 215500: system.cpu: Post execute machcode = e1110002 pc = 62e78
 216000: system.cpu: Post execute machcode = a00006c pc = 62e7c
 216500: system.cpu: Post execute machcode = 1e16f2f11 pc = 63034
 217000: system.cpu: Post execute machcode = e262201f pc = 63038
 217500: system.cpu: Post execute machcode = e1a00230 pc = 6303c
 218000: system.cpu: Post execute a function RETURN machcode = 1e12fff1e pc = 63040 currentRetnNum is 5
 218500: system.cpu: Post execute machcode = e1a0a004 pc = 87a8
 219000: system.cpu: Post execute machcode = e1a0e000 pc = 87ac
 219500: system.cpu: Post execute machcode = ea000004 pc = 87b0
 220000: system.cpu: Post execute machcode = e59f3158 pc = 87c8
 220500: system.cpu: Post execute machcode = 2e00b0e94 pc = 87cc
 221000: system.cpu: Post execute machcode = e59f5154 pc = 87d0
 221500: system.cpu: Post execute machcode = e5930000 pc = 87d4
 222000: system.cpu: Post execute machcode = e59f9150 pc = 87d8
 222500: system.cpu: Post execute machcode = e2800e4a pc = 87dc
 223000: system.cpu: Post execute machcode = e0800008 pc = 87e0
 223500: system.cpu: Post execute machcode = e0800006 pc = 87e4
 224000: system.cpu: Post execute machcode = e080000b pc = 87e8
 224500: system.cpu: Post execute a function CALL machcode = 1eb00298f pc = 87ec currentCallNum is 7
 225000: system.cpu: Post execute machcode = 1e92d4030 pc = 12e30
 225500: system.cpu: Post execute machcode = 1e92d4030 pc = 12e30
 226000: system.cpu: Post execute machcode = 1e92d4030 pc = 12e30
 226500: system.cpu: Post execute machcode = 1e92d4030 pc = 12e30
 227000: system.cpu: Post execute machcode = e59f4068 pc = 12e34
 227500: system.cpu: Post execute machcode = e24dd004 pc = 12e38
 228000: system.cpu: Post execute machcode = e1a05000 pc = 12e3c
 228500: system.cpu: Post execute machcode = e5943000 pc = 12e40
 229000: system.cpu: Post execute machcode = e3530000 pc = 12e44
 229500: system.cpu: Post execute machcode = a000009 pc = 12e48
 230000: system.cpu: Post execute machcode = e3a00000 pc = 12e74
 230500: system.cpu: Post execute a function CALL machcode = 1eb008069 pc = 12e78 currentCallNum is 8
 231000: system.cpu: Post execute machcode = 3e92d4090 pc = 33024
 231500: system.cpu: Post execute machcode = 3e92d4090 pc = 33024
 232000: system.cpu: Post execute machcode = 3e92d4090 pc = 33024
 232500: system.cpu: Post execute machcode = 3e92d4090 pc = 33024
 233000: system.cpu: Post execute machcode = e1a04000 pc = 33028
 233500: system.cpu: Post execute machcode = e3a0702d pc = 3302c
 234000: system.cpu: Post execute machcode = 1ef000000 pc = 33030
 234500: system.cpu: Post execute machcode = e3700a01 pc = 33034
 235000: system.cpu: Post execute machcode = e1a03000 pc = 33038
 235500: system.cpu: Post execute machcode = 91a01000 pc = 3303c
 236000: system.cpu: Post execute machcode = 8a00000d pc = 33040
 236500: system.cpu: Post execute machcode = e59f304c pc = 33044
 237000: system.cpu: Post execute machcode = e1540001 pc = 33048
 237500: system.cpu: Post execute machcode = e5831000 pc = 3304c
 238000: system.cpu: Post execute machcode = 93a01000 pc = 33050
 238500: system.cpu: Post execute machcode = 8a000001 pc = 33054
 239000: system.cpu: Post execute machcode = e1a00001 pc = 33058
 239500: system.cpu: Post execute machcode = 2e8bd8090 pc = 3305c
 240000: system.cpu: Post execute machcode = 2e8bd8090 pc = 3305c
 240500: system.cpu: Post execute machcode = 2e8bd8090 pc = 3305c
 241000: system.cpu: Post execute a function RETURN machcode = 2e8bd8090 pc = 3305c currentRetnNum is 6
 241500: system.cpu: Post execute machcode = e3500000 pc = 12e7c
 242000: system.cpu: Post execute machcode = 2aafffff5 pc = 12e80
 242500: system.cpu: Post execute machcode = e3550000 pc = 12e5c
 243000: system.cpu: Post execute machcode = 5944000 pc = 12e60
 243500: system.cpu: Post execute machcode = 1a000008 pc = 12e64
 244000: system.cpu: Post execute machcode = e5944000 pc = 12e8c
 244500: system.cpu: Post execute machcode = e0840005 pc = 12e90
 245000: system.cpu: Post execute a function CALL machcode = 1eb008062 pc = 12e94 currentCallNum is 9
 245500: system.cpu: Post execute machcode = 3e92d4090 pc = 33024
 246000: system.cpu: Post execute machcode = 3e92d4090 pc = 33024
 246500: system.cpu: Post execute machcode = 3e92d4090 pc = 33024
 247000: system.cpu: Post execute machcode = 3e92d4090 pc = 33024
 247500: system.cpu: Post execute machcode = e1a04000 pc = 33028
 248000: system.cpu: Post execute machcode = e3a0702d pc = 3302c
 248500: system.cpu: Post execute machcode = 1ef000000 pc = 33030
 249000: system.cpu: Post execute machcode = e3700a01 pc = 33034
 249500: system.cpu: Post execute machcode = e1a03000 pc = 33038
 250000: system.cpu: Post execute machcode = 91a01000 pc = 3303c
 250500: system.cpu: Post execute machcode = 8a00000d pc = 33040
 251000: system.cpu: Post execute machcode = e59f304c pc = 33044
 251500: system.cpu: Post execute machcode = e1540001 pc = 33048
 252000: system.cpu: Post execute machcode = e5831000 pc = 3304c
 252500: system.cpu: Post execute machcode = 93a01000 pc = 33050
 253000: system.cpu: Post execute machcode = 8a000001 pc = 33054
 253500: system.cpu: Post execute machcode = e1a00001 pc = 33058
 254000: system.cpu: Post execute machcode = 2e8bd8090 pc = 3305c
 254500: system.cpu: Post execute machcode = 2e8bd8090 pc = 3305c
 255000: system.cpu: Post execute machcode = 2e8bd8090 pc = 3305c
 255500: system.cpu: Post execute a function RETURN machcode = 2e8bd8090 pc = 3305c currentRetnNum is 7
 256000: system.cpu: Post execute machcode = e3500000 pc = 12e98
 256500: system.cpu: Post execute machcode = 2aafffff1 pc = 12e9c
 257000: system.cpu: Post execute machcode = e1a00004 pc = 12e68
 257500: system.cpu: Post execute machcode = e28dd004 pc = 12e6c
 258000: system.cpu: Post execute machcode = e8bd8030 pc = 12e70
 258500: system.cpu: Post execute machcode = e8bd8030 pc = 12e70
 259000: system.cpu: Post execute machcode = e8bd8030 pc = 12e70
 259500: system.cpu: Post execute a function RETURN machcode = e8bd8030 pc = 12e70 currentRetnNum is 8
 260000: system.cpu: Post execute machcode = e59d100c pc = 87f0
 260500: system.cpu: Post execute machcode = e589b234 pc = 87f4
 261000: system.cpu: Post execute machcode = e2662000 pc = 87f8
 261500: system.cpu: Post execute machcode = e3a0303e pc = 87fc
 262000: system.cpu: Post execute machcode = e58d2004 pc = 8800
 262500: system.cpu: Post execute machcode = e59d2008 pc = 8804
 263000: system.cpu: Post execute machcode = e5853000 pc = 8808
 263500: system.cpu: Post execute machcode = e3a03001 pc = 880c
 264000: system.cpu: Post execute machcode = e5c53014 pc = 8810
 264500: system.cpu: Post execute machcode = e59d3004 pc = 8814
 265000: system.cpu: Post execute machcode = e246c001 pc = 8818
 265500: system.cpu: Post execute machcode = e59f7110 pc = 881c
 266000: system.cpu: Post execute machcode = e2804e4a pc = 8820
 266500: system.cpu: Post execute machcode = e084400c pc = 8824
 267000: system.cpu: Post execute machcode = e0044003 pc = 8828
 267500: system.cpu: Post execute machcode = e084300b pc = 882c
 268000: system.cpu: Post execute machcode = e1a00003 pc = 8830
 268500: system.cpu: Post execute machcode = e5853010 pc = 8834
 269000: system.cpu: Post execute a function CALL machcode = 1eb00267c pc = 8838 currentCallNum is 10
 269500: system.cpu: Post execute machcode = 1e92d4011 pc = 12230
 270000: system.cpu: Post execute machcode = 1e92d4011 pc = 12230
 270500: system.cpu: Post execute machcode = 1e92d4011 pc = 12230
 271000: system.cpu: Post execute machcode = 1e92d4011 pc = 12230
 271500: system.cpu: Post execute machcode = e2522004 pc = 12234
 272000: system.cpu: Post execute machcode = ba000021 pc = 12238
 272500: system.cpu: Post execute machcode = e210c003 pc = 1223c
 273000: system.cpu: Post execute machcode = 1a000027 pc = 12240
 273500: system.cpu: Post execute machcode = e211c003 pc = 12244
 274000: system.cpu: Post execute machcode = 1a000031 pc = 12248
 274500: system.cpu: Post execute machcode = e252201c pc = 1224c
 275000: system.cpu: Post execute machcode = 1e92d01e0 pc = 12250
 275500: system.cpu: Post execute machcode = 1e92d01e0 pc = 12250
 276000: system.cpu: Post execute machcode = 1e92d01e0 pc = 12250
 276500: system.cpu: Post execute machcode = 1e92d01e0 pc = 12250
 277000: system.cpu: Post execute machcode = 1e92d01e0 pc = 12250
 277500: system.cpu: Post execute machcode = ba000003 pc = 12254
 278000: system.cpu: Post execute machcode = e212c01c pc = 12268
 278500: system.cpu: Post execute machcode = e26cc020 pc = 1226c
 279000: system.cpu: Post execute machcode = 108ff00c pc = 12270
 279500: system.cpu: Post execute machcode = e4916004 pc = 12288
 280000: system.cpu: Post execute machcode = e4916004 pc = 12288
 280500: system.cpu: Post execute machcode = e4917004 pc = 1228c
 281000: system.cpu: Post execute machcode = e4917004 pc = 1228c
 281500: system.cpu: Post execute machcode = e4918004 pc = 12290
 282000: system.cpu: Post execute machcode = e4918004 pc = 12290
 282500: system.cpu: Post execute machcode = e491e004 pc = 12294
 283000: system.cpu: Post execute machcode = e491e004 pc = 12294
 283500: system.cpu: Post execute machcode = e08ff00c pc = 12298
 284000: system.cpu: Post execute machcode = e4806004 pc = 122b0
 284500: system.cpu: Post execute machcode = e4806004 pc = 122b0
 285000: system.cpu: Post execute machcode = e4807004 pc = 122b4
 285500: system.cpu: Post execute machcode = e4807004 pc = 122b4
 286000: system.cpu: Post execute machcode = e4808004 pc = 122b8
 286500: system.cpu: Post execute machcode = e4808004 pc = 122b8
 287000: system.cpu: Post execute machcode = e480e004 pc = 122bc
 287500: system.cpu: Post execute machcode = e480e004 pc = 122bc
 288000: system.cpu: Post execute machcode = e8bd01e0 pc = 122c0
 288500: system.cpu: Post execute machcode = e8bd01e0 pc = 122c0
 289000: system.cpu: Post execute machcode = e8bd01e0 pc = 122c0
 289500: system.cpu: Post execute machcode = e1b02f82 pc = 122c4
 290000: system.cpu: Post execute machcode = 14d13001 pc = 122c8
 290500: system.cpu: Post execute machcode = 14d13001 pc = 122c8
 291000: system.cpu: Post execute machcode = 24d14001 pc = 122cc
 291500: system.cpu: Post execute machcode = 24d14001 pc = 122cc
 292000: system.cpu: Post execute machcode = 25d1c000 pc = 122d0
 292500: system.cpu: Post execute machcode = 14c03001 pc = 122d4
 293000: system.cpu: Post execute machcode = 14c03001 pc = 122d4
 293500: system.cpu: Post execute machcode = 24c04001 pc = 122d8
 294000: system.cpu: Post execute machcode = 24c04001 pc = 122d8
 294500: system.cpu: Post execute machcode = 25c0c000 pc = 122dc
 295000: system.cpu: Post execute machcode = e8bd8011 pc = 122e0
 295500: system.cpu: Post execute machcode = e8bd8011 pc = 122e0
 296000: system.cpu: Post execute machcode = e8bd8011 pc = 122e0
 296500: system.cpu: Post execute a function RETURN machcode = e8bd8011 pc = 122e0 currentRetnNum is 9
 297000: system.cpu: Post execute machcode = e2855008 pc = 883c
 297500: system.cpu: Post execute machcode = e1a00004 pc = 8840
 298000: system.cpu: Post execute machcode = e5845000 pc = 8844
 298500: system.cpu: Post execute machcode = 1ef000000 pc = 8848
 299000: system.cpu: Post execute machcode = e3700a01 pc = 884c
 299500: system.cpu: Post execute machcode = 9a000001 pc = 8850
 300000: system.cpu: Post execute machcode = e59d300c pc = 885c
 300500: system.cpu: Post execute machcode = e59d2008 pc = 8860
 301000: system.cpu: Post execute machcode = 2e5d91194 pc = 8864
 301500: system.cpu: Post execute machcode = e5893220 pc = 8868
 302000: system.cpu: Post execute machcode = e59f30c8 pc = 886c
 302500: system.cpu: Post execute machcode = e59f00c8 pc = 8870
 303000: system.cpu: Post execute machcode = e5892224 pc = 8874
 303500: system.cpu: Post execute machcode = e3a02001 pc = 8878
 304000: system.cpu: Post execute machcode = e5832000 pc = 887c
 304500: system.cpu: Post execute machcode = 2e59f20bc pc = 8880
 305000: system.cpu: Post execute machcode = e35a0000 pc = 8884
 305500: system.cpu: Post execute machcode = e3a03001 pc = 8888
 306000: system.cpu: Post execute machcode = e5809014 pc = 888c
 306500: system.cpu: Post execute machcode = e5820000 pc = 8890
 307000: system.cpu: Post execute machcode = e3c11003 pc = 8894
 307500: system.cpu: Post execute machcode = e589a22c pc = 8898
 308000: system.cpu: Post execute machcode = 2e5c91194 pc = 889c
 308500: system.cpu: Post execute machcode = e5893238 pc = 88a0
 309000: system.cpu: Post execute machcode = e5898228 pc = 88a4
 309500: system.cpu: Post execute machcode = e283303f pc = 88a8
 310000: system.cpu: Post execute machcode = 28aa001 pc = 88ac
 310500: system.cpu: Post execute machcode = e5803000 pc = 88b0
 311000: system.cpu: Post execute machcode = 1a000013 pc = 88b4
 311500: system.cpu: Post execute machcode = e088000a pc = 8908
 312000: system.cpu: Post execute machcode = e2400001 pc = 890c
 312500: system.cpu: Post execute machcode = e1a0100a pc = 8910
 313000: system.cpu: Post execute a function CALL machcode = 1eb016952 pc = 8914 currentCallNum is 11
 313500: system.cpu: Post execute machcode = e2512001 pc = 62e64
 314000: system.cpu: Post execute a function RETURN machcode = 1012fff1e pc = 62e68 currentRetnNum is 10
 314500: system.cpu: Post execute machcode = 3a000074 pc = 62e6c
 315000: system.cpu: Post execute machcode = e1500001 pc = 62e70
 315500: system.cpu: Post execute machcode = 9a00006b pc = 62e74
 316000: system.cpu: Post execute machcode = e1110002 pc = 62e78
 316500: system.cpu: Post execute machcode = a00006c pc = 62e7c
 317000: system.cpu: Post execute machcode = 1e16f2f11 pc = 63034
 317500: system.cpu: Post execute machcode = e262201f pc = 63038
 318000: system.cpu: Post execute machcode = e1a00230 pc = 6303c
 318500: system.cpu: Post execute a function RETURN machcode = 1e12fff1e pc = 63040 currentRetnNum is 11
 319000: system.cpu: Post execute machcode = e1a08000 pc = 8918
 319500: system.cpu: Post execute machcode = eaffffe5 pc = 891c
 320000: system.cpu: Post execute machcode = 2e020b89a pc = 88b8
 320500: system.cpu: Post execute machcode = e59f2064 pc = 88bc
 321000: system.cpu: Post execute machcode = e3560010 pc = 88c0
 321500: system.cpu: Post execute machcode = 21a01006 pc = 88c4
 322000: system.cpu: Post execute machcode = 33a01010 pc = 88c8
 322500: system.cpu: Post execute machcode = e5923000 pc = 88cc
 323000: system.cpu: Post execute machcode = e59f2070 pc = 88d0
 323500: system.cpu: Post execute machcode = e283300f pc = 88d4
 324000: system.cpu: Post execute machcode = e0833000 pc = 88d8
 324500: system.cpu: Post execute machcode = e5820000 pc = 88dc
 325000: system.cpu: Post execute machcode = e59f2064 pc = 88e0
 325500: system.cpu: Post execute machcode = e3c3300f pc = 88e4
 326000: system.cpu: Post execute machcode = e5821000 pc = 88e8
 326500: system.cpu: Post execute machcode = e59f2034 pc = 88ec
 327000: system.cpu: Post execute machcode = e5823000 pc = 88f0
 327500: system.cpu: Post execute machcode = e59f3054 pc = 88f4
 328000: system.cpu: Post execute machcode = e3a02001 pc = 88f8
 328500: system.cpu: Post execute machcode = e5832000 pc = 88fc
 329000: system.cpu: Post execute machcode = e28dd014 pc = 8900
 329500: system.cpu: Post execute machcode = 2e8bd8ff0 pc = 8904
 330000: system.cpu: Post execute machcode = 2e8bd8ff0 pc = 8904
 330500: system.cpu: Post execute machcode = 2e8bd8ff0 pc = 8904
 331000: system.cpu: Post execute machcode = 2e8bd8ff0 pc = 8904
 331500: system.cpu: Post execute machcode = 2e8bd8ff0 pc = 8904
 332000: system.cpu: Post execute machcode = 2e8bd8ff0 pc = 8904
 332500: system.cpu: Post execute a function RETURN machcode = 2e8bd8ff0 pc = 8904 currentRetnNum is 12
 333000: system.cpu: Post execute machcode = 2e59f01f0 pc = 832c
 333500: system.cpu: Post execute machcode = e3a01000 pc = 8330
 334000: system.cpu: Post execute a function CALL machcode = 1eb002a09 pc = 8334 currentCallNum is 12
 334500: system.cpu: Post execute machcode = e51fc028 pc = 12b60
 335000: system.cpu: Post execute machcode = e79fc00c pc = 12b64
 335500: system.cpu: Post execute machcode = e33c0000 pc = 12b68
 336000: system.cpu: Post execute machcode = 1a000006 pc = 12b6c
 336500: system.cpu: Post execute machcode = e1a0c007 pc = 12b70
 337000: system.cpu: Post execute machcode = e3a07005 pc = 12b74
 337500: system.cpu: Post execute machcode = 1ef000000 pc = 12b78
 338000: system.cpu: Post execute machcode = e1a0700c pc = 12b7c
 338500: system.cpu: Post execute machcode = e3700a01 pc = 12b80
 339000: system.cpu: Post execute a function RETURN machcode = 1312fff1e pc = 12b84 currentRetnNum is 13
 339500: system.cpu: Post execute machcode = e2505000 pc = 8338
 340000: system.cpu: Post execute machcode = ba000008 pc = 833c
 340500: system.cpu: Post execute machcode = e3a02004 pc = 8340
 341000: system.cpu: Post execute machcode = e28d1f4b pc = 8344
 341500: system.cpu: Post execute a function CALL machcode = 1eb002a4c pc = 8348 currentCallNum is 13
 342000: system.cpu: Post execute machcode = e51fc028 pc = 12c80
 342500: system.cpu: Post execute machcode = e79fc00c pc = 12c84
 343000: system.cpu: Post execute machcode = e33c0000 pc = 12c88
 343500: system.cpu: Post execute machcode = 1a000006 pc = 12c8c
 344000: system.cpu: Post execute machcode = e1a0c007 pc = 12c90
 344500: system.cpu: Post execute machcode = e3a07003 pc = 12c94
 345000: system.cpu: Post execute machcode = 1ef000000 pc = 12c98
 345500: system.cpu: Post execute machcode = e1a0700c pc = 12c9c
 346000: system.cpu: Post execute machcode = e3700a01 pc = 12ca0
 346500: system.cpu: Post execute a function RETURN machcode = 1312fff1e pc = 12ca4 currentRetnNum is 14
 347000: system.cpu: Post execute machcode = e1a04000 pc = 834c
 347500: system.cpu: Post execute machcode = e1a00005 pc = 8350
 348000: system.cpu: Post execute a function CALL machcode = 1eb002a25 pc = 8354 currentCallNum is 14
 348500: system.cpu: Post execute machcode = e51fc028 pc = 12bf0
 349000: system.cpu: Post execute machcode = e79fc00c pc = 12bf4
 349500: system.cpu: Post execute machcode = e33c0000 pc = 12bf8
 350000: system.cpu: Post execute machcode = 1a000006 pc = 12bfc
 350500: system.cpu: Post execute machcode = e1a0c007 pc = 12c00
 351000: system.cpu: Post execute machcode = e3a07006 pc = 12c04
 351500: system.cpu: Post execute machcode = 1ef000000 pc = 12c08
 352000: system.cpu: Post execute machcode = e1a0700c pc = 12c0c
 352500: system.cpu: Post execute machcode = e3700a01 pc = 12c10
 353000: system.cpu: Post execute a function RETURN machcode = 1312fff1e pc = 12c14 currentRetnNum is 15
 353500: system.cpu: Post execute machcode = e3540004 pc = 8358
 354000: system.cpu: Post execute machcode = 59d212c pc = 835c
 354500: system.cpu: Post execute machcode = a000013 pc = 8360
 355000: system.cpu: Post execute machcode = e59f3174 pc = 83b4
 355500: system.cpu: Post execute machcode = e3570000 pc = 83b8
 356000: system.cpu: Post execute machcode = e5832000 pc = 83bc
 356500: system.cpu: Post execute machcode = a000003 pc = 83c0
 357000: system.cpu: Post execute machcode = e59f313c pc = 83d4
 357500: system.cpu: Post execute machcode = e59d0008 pc = 83d8
 358000: system.cpu: Post execute machcode = e59d1004 pc = 83dc
 358500: system.cpu: Post execute machcode = e5932000 pc = 83e0
 359000: system.cpu: Post execute a function CALL machcode = 1eb0032e2 pc = 83e4 currentCallNum is 15
 359500: system.cpu: Post execute machcode = e59f307c pc = 14f74
 360000: system.cpu: Post execute machcode = 1e92d4070 pc = 14f78
 360500: system.cpu: Post execute machcode = 1e92d4070 pc = 14f78
 361000: system.cpu: Post execute machcode = 1e92d4070 pc = 14f78
 361500: system.cpu: Post execute machcode = 1e92d4070 pc = 14f78
 362000: system.cpu: Post execute machcode = 1e92d4070 pc = 14f78
 362500: system.cpu: Post execute machcode = e3530000 pc = 14f7c
 363000: system.cpu: Post execute machcode = e1a06000 pc = 14f80
 363500: system.cpu: Post execute machcode = e1a04001 pc = 14f84
 364000: system.cpu: Post execute machcode = e1a05002 pc = 14f88
 364500: system.cpu: Post execute machcode = 1a000012 pc = 14f8c
 365000: system.cpu: Post execute machcode = e59f3064 pc = 14f90
 365500: system.cpu: Post execute machcode = e3a02000 pc = 14f94
 366000: system.cpu: Post execute machcode = e5930000 pc = 14f98
 366500: system.cpu: Post execute machcode = e59f305c pc = 14f9c
 367000: system.cpu: Post execute machcode = e5832000 pc = 14fa0
 367500: system.cpu: Post execute a function CALL machcode = 1eb0011e6 pc = 14fa4 currentCallNum is 16
 368000: system.cpu: Post execute machcode = e59f3040 pc = 19744
 368500: system.cpu: Post execute machcode = 1e92d0070 pc = 19748
 369000: system.cpu: Post execute machcode = 1e92d0070 pc = 19748
 369500: system.cpu: Post execute machcode = 1e92d0070 pc = 19748
 370000: system.cpu: Post execute machcode = 1e92d0070 pc = 19748
 370500: system.cpu: Post execute machcode = e3a02000 pc = 1974c
 371000: system.cpu: Post execute machcode = e8930060 pc = 19750
 371500: system.cpu: Post execute machcode = e3a01040 pc = 19754
 372000: system.cpu: Post execute machcode = e0053001 pc = 19758
 372500: system.cpu: Post execute machcode = e0064002 pc = 1975c
 373000: system.cpu: Post execute machcode = e1932004 pc = 19760
 373500: system.cpu: Post execute machcode = a000006 pc = 19764
 374000: system.cpu: Post execute machcode = eef11a10 pc = 19768
 374500: system.cpu: Post execute machcode = e59f201c pc = 1976c
 375000: system.cpu: Post execute machcode = e59f301c pc = 19770
 375500: system.cpu: Post execute machcode = e0012002 pc = 19774
 376000: system.cpu: Post execute machcode = e0003003 pc = 19778
 376500: system.cpu: Post execute machcode = e1822003 pc = 1977c
 377000: system.cpu: Post execute machcode = eee12a10 pc = 19780
 377500: system.cpu: Post execute machcode = e8bd0070 pc = 19784
 378000: system.cpu: Post execute machcode = e8bd0070 pc = 19784
 378500: system.cpu: Post execute machcode = e8bd0070 pc = 19784
 379000: system.cpu: Post execute a function RETURN machcode = 1e12fff1e pc = 19788 currentRetnNum is 16
 379500: system.cpu: Post execute machcode = e59f3054 pc = 14fa8
 380000: system.cpu: Post execute machcode = e59f2054 pc = 14fac
 380500: system.cpu: Post execute machcode = e5836000 pc = 14fb0
 381000: system.cpu: Post execute machcode = e59f3050 pc = 14fb4
 381500: system.cpu: Post execute machcode = e5824000 pc = 14fb8
 382000: system.cpu: Post execute machcode = e5835000 pc = 14fbc
 382500: system.cpu: Post execute a function CALL machcode = ebffff8b pc = 14fc0 currentCallNum is 17
 383000: system.cpu: Post execute machcode = e59f3058 pc = 14df4
 383500: system.cpu: Post execute machcode = 1e92d4030 pc = 14df8
 384000: system.cpu: Post execute machcode = 1e92d4030 pc = 14df8
 384500: system.cpu: Post execute machcode = 1e92d4030 pc = 14df8
 385000: system.cpu: Post execute machcode = 1e92d4030 pc = 14df8
 385500: system.cpu: Post execute machcode = e24dd004 pc = 14dfc
 386000: system.cpu: Post execute machcode = e5935000 pc = 14e00
 386500: system.cpu: Post execute machcode = e3550000 pc = 14e04
 387000: system.cpu: Post execute machcode = a000001 pc = 14e08
 387500: system.cpu: Post execute machcode = e28dd004 pc = 14e0c
 388000: system.cpu: Post execute machcode = e8bd8030 pc = 14e10
 388500: system.cpu: Post execute machcode = e8bd8030 pc = 14e10
 389000: system.cpu: Post execute machcode = e8bd8030 pc = 14e10
 389500: system.cpu: Post execute a function RETURN machcode = e8bd8030 pc = 14e10 currentRetnNum is 17
 390000: system.cpu: Post execute a function CALL machcode = 2ebfffdbf pc = 14fc4 currentCallNum is 18
 390500: system.cpu: Post execute machcode = 3e92d45f0 pc = 146c8
 391000: system.cpu: Post execute machcode = 3e92d45f0 pc = 146c8
 391500: system.cpu: Post execute machcode = 3e92d45f0 pc = 146c8
 392000: system.cpu: Post execute machcode = 3e92d45f0 pc = 146c8
 392500: system.cpu: Post execute machcode = 3e92d45f0 pc = 146c8
 393000: system.cpu: Post execute machcode = 3e92d45f0 pc = 146c8
 393500: system.cpu: Post execute machcode = 3e92d45f0 pc = 146c8
 394000: system.cpu: Post execute machcode = 3e92d45f0 pc = 146c8
 394500: system.cpu: Post execute machcode = 2e59f42bc pc = 146cc
 395000: system.cpu: Post execute machcode = e24dd00c pc = 146d0
 395500: system.cpu: Post execute machcode = e5943000 pc = 146d4
 396000: system.cpu: Post execute machcode = e3530000 pc = 146d8
 396500: system.cpu: Post execute machcode = a0000a5 pc = 146dc
 397000: system.cpu: Post execute machcode = e59f02ac pc = 146e0
 397500: system.cpu: Post execute a function CALL machcode = 1eb0016cb pc = 146e4 currentCallNum is 19
 398000: system.cpu: Post execute machcode = 3e92d41f0 pc = 1a218
 398500: system.cpu: Post execute machcode = 3e92d41f0 pc = 1a218
 399000: system.cpu: Post execute machcode = 3e92d41f0 pc = 1a218
 399500: system.cpu: Post execute machcode = 3e92d41f0 pc = 1a218
 400000: system.cpu: Post execute machcode = 3e92d41f0 pc = 1a218
 400500: system.cpu: Post execute machcode = 3e92d41f0 pc = 1a218
 401000: system.cpu: Post execute machcode = 3e92d41f0 pc = 1a218
 401500: system.cpu: Post execute machcode = e1a05000 pc = 1a21c
 402000: system.cpu: Post execute a function CALL machcode = 2ebffddd2 pc = 1a220 currentCallNum is 20
 402500: system.cpu: Post execute machcode = e3c01003 pc = 11970
 403000: system.cpu: Post execute machcode = e4912004 pc = 11974
 403500: system.cpu: Post execute machcode = e4912004 pc = 11974
 404000: system.cpu: Post execute machcode = e2103003 pc = 11978
 404500: system.cpu: Post execute machcode = e2630000 pc = 1197c
 405000: system.cpu: Post execute machcode = a000004 pc = 11980
 405500: system.cpu: Post execute machcode = 2e31200ff pc = 11998
 406000: system.cpu: Post execute machcode = 213120cff pc = 1199c
 406500: system.cpu: Post execute machcode = 2131208ff pc = 119a0
 407000: system.cpu: Post execute machcode = 2131204ff pc = 119a4
 407500: system.cpu: Post execute machcode = 12800004 pc = 119a8
 408000: system.cpu: Post execute machcode = 14912004 pc = 119ac
 408500: system.cpu: Post execute machcode = 14912004 pc = 119ac
 409000: system.cpu: Post execute machcode = 21afffff8 pc = 119b0
 409500: system.cpu: Post execute machcode = 2e31200ff pc = 11998
 410000: system.cpu: Post execute machcode = 213120cff pc = 1199c
 410500: system.cpu: Post execute machcode = 2131208ff pc = 119a0
 411000: system.cpu: Post execute machcode = 2131204ff pc = 119a4
 411500: system.cpu: Post execute machcode = 12800004 pc = 119a8
 412000: system.cpu: Post execute machcode = 14912004 pc = 119ac
 412500: system.cpu: Post execute machcode = 14912004 pc = 119ac
 413000: system.cpu: Post execute machcode = 21afffff8 pc = 119b0
 413500: system.cpu: Post execute machcode = 2e31200ff pc = 119b4
 414000: system.cpu: Post execute machcode = 12800001 pc = 119b8
 414500: system.cpu: Post execute machcode = 213120cff pc = 119bc
 415000: system.cpu: Post execute machcode = 12800001 pc = 119c0
 415500: system.cpu: Post execute machcode = 2131208ff pc = 119c4
 416000: system.cpu: Post execute machcode = 12800001 pc = 119c8
 416500: system.cpu: Post execute a function RETURN machcode = 1e12fff1e pc = 119cc currentRetnNum is 18
 417000: system.cpu: Post execute machcode = e59f3100 pc = 1a224
 417500: system.cpu: Post execute machcode = e5931000 pc = 1a228
 418000: system.cpu: Post execute machcode = e3510000 pc = 1a22c
 418500: system.cpu: Post execute machcode = 1a000001 pc = 1a230
 419000: system.cpu: Post execute machcode = e5d5c000 pc = 1a23c
 419500: system.cpu: Post execute machcode = e35c0000 pc = 1a240
 420000: system.cpu: Post execute machcode = 20afffffa pc = 1a244
 420500: system.cpu: Post execute machcode = e5d53001 pc = 1a248
 421000: system.cpu: Post execute machcode = e3530000 pc = 1a24c
 421500: system.cpu: Post execute machcode = 1a000015 pc = 1a250
 422000: system.cpu: Post execute machcode = e5914000 pc = 1a2ac
 422500: system.cpu: Post execute machcode = e18c3403 pc = 1a2b0
 423000: system.cpu: Post execute machcode = e3540000 pc = 1a2b4
 423500: system.cpu: Post execute machcode = e2407002 pc = 1a2b8
 424000: system.cpu: Post execute machcode = e2858002 pc = 1a2bc
 424500: system.cpu: Post execute machcode = 20affffdb pc = 1a2c0
 425000: system.cpu: Post execute machcode = e3a00000 pc = 1a234
 425500: system.cpu: Post execute machcode = 2e8bd81f0 pc = 1a238
 426000: system.cpu: Post execute machcode = 2e8bd81f0 pc = 1a238
 426500: system.cpu: Post execute machcode = 2e8bd81f0 pc = 1a238
 427000: system.cpu: Post execute machcode = 2e8bd81f0 pc = 1a238
 427500: system.cpu: Post execute a function RETURN machcode = 2e8bd81f0 pc = 1a238 currentRetnNum is 19
 428000: system.cpu: Post execute machcode = e59f42a8 pc = 146e8
 428500: system.cpu: Post execute machcode = e3500000 pc = 146ec
 429000: system.cpu: Post execute machcode = 11a02000 pc = 146f0
 429500: system.cpu: Post execute machcode = 1a02004 pc = 146f4
 430000: system.cpu: Post execute machcode = 2e59f029c pc = 146f8
 430500: system.cpu: Post execute machcode = e5d23000 pc = 146fc
 431000: system.cpu: Post execute machcode = 2e59f2298 pc = 14700
 431500: system.cpu: Post execute machcode = e2533000 pc = 14704
 432000: system.cpu: Post execute machcode = 13a03001 pc = 14708
 432500: system.cpu: Post execute machcode = e5823000 pc = 1470c
 433000: system.cpu: Post execute a function CALL machcode = 1eb0016c0 pc = 14710 currentCallNum is 21
 433500: system.cpu: Post execute machcode = 3e92d41f0 pc = 1a218
 434000: system.cpu: Post execute machcode = 3e92d41f0 pc = 1a218
 434500: system.cpu: Post execute machcode = 3e92d41f0 pc = 1a218
 435000: system.cpu: Post execute machcode = 3e92d41f0 pc = 1a218
 435500: system.cpu: Post execute machcode = 3e92d41f0 pc = 1a218
 436000: system.cpu: Post execute machcode = 3e92d41f0 pc = 1a218
 436500: system.cpu: Post execute machcode = 3e92d41f0 pc = 1a218
 437000: system.cpu: Post execute machcode = e1a05000 pc = 1a21c
 437500: system.cpu: Post execute a function CALL machcode = 2ebffddd2 pc = 1a220 currentCallNum is 22
 438000: system.cpu: Post execute machcode = e3c01003 pc = 11970
 438500: system.cpu: Post execute machcode = e4912004 pc = 11974
 439000: system.cpu: Post execute machcode = e4912004 pc = 11974
 439500: system.cpu: Post execute machcode = e2103003 pc = 11978
 440000: system.cpu: Post execute machcode = e2630000 pc = 1197c
 440500: system.cpu: Post execute machcode = a000004 pc = 11980
 441000: system.cpu: Post execute machcode = 2e31200ff pc = 11998
 441500: system.cpu: Post execute machcode = 213120cff pc = 1199c
 442000: system.cpu: Post execute machcode = 2131208ff pc = 119a0
 442500: system.cpu: Post execute machcode = 2131204ff pc = 119a4
 443000: system.cpu: Post execute machcode = 12800004 pc = 119a8
 443500: system.cpu: Post execute machcode = 14912004 pc = 119ac
 444000: system.cpu: Post execute machcode = 14912004 pc = 119ac
 444500: system.cpu: Post execute machcode = 21afffff8 pc = 119b0
 445000: system.cpu: Post execute machcode = 2e31200ff pc = 11998
 445500: system.cpu: Post execute machcode = 213120cff pc = 1199c
 446000: system.cpu: Post execute machcode = 2131208ff pc = 119a0
 446500: system.cpu: Post execute machcode = 2131204ff pc = 119a4
 447000: system.cpu: Post execute machcode = 12800004 pc = 119a8
 447500: system.cpu: Post execute machcode = 14912004 pc = 119ac
 448000: system.cpu: Post execute machcode = 14912004 pc = 119ac
 448500: system.cpu: Post execute machcode = 21afffff8 pc = 119b0
 449000: system.cpu: Post execute machcode = 2e31200ff pc = 11998
 449500: system.cpu: Post execute machcode = 213120cff pc = 1199c
 450000: system.cpu: Post execute machcode = 2131208ff pc = 119a0
 450500: system.cpu: Post execute machcode = 2131204ff pc = 119a4
 451000: system.cpu: Post execute machcode = 12800004 pc = 119a8
 451500: system.cpu: Post execute machcode = 14912004 pc = 119ac
 452000: system.cpu: Post execute machcode = 14912004 pc = 119ac
 452500: system.cpu: Post execute machcode = 21afffff8 pc = 119b0
 453000: system.cpu: Post execute machcode = 2e31200ff pc = 11998
 453500: system.cpu: Post execute machcode = 213120cff pc = 1199c
 454000: system.cpu: Post execute machcode = 2131208ff pc = 119a0
 454500: system.cpu: Post execute machcode = 2131204ff pc = 119a4
 455000: system.cpu: Post execute machcode = 12800004 pc = 119a8
 455500: system.cpu: Post execute machcode = 14912004 pc = 119ac
 456000: system.cpu: Post execute machcode = 14912004 pc = 119ac
 456500: system.cpu: Post execute machcode = 21afffff8 pc = 119b0
 457000: system.cpu: Post execute machcode = 2e31200ff pc = 119b4
 457500: system.cpu: Post execute machcode = 12800001 pc = 119b8
 458000: system.cpu: Post execute machcode = 213120cff pc = 119bc
 458500: system.cpu: Post execute machcode = 12800001 pc = 119c0
 459000: system.cpu: Post execute machcode = 2131208ff pc = 119c4
 459500: system.cpu: Post execute machcode = 12800001 pc = 119c8
 460000: system.cpu: Post execute a function RETURN machcode = 1e12fff1e pc = 119cc currentRetnNum is 20
 460500: system.cpu: Post execute machcode = e59f3100 pc = 1a224
 461000: system.cpu: Post execute machcode = e5931000 pc = 1a228
 461500: system.cpu: Post execute machcode = e3510000 pc = 1a22c
 462000: system.cpu: Post execute machcode = 1a000001 pc = 1a230
 462500: system.cpu: Post execute machcode = e5d5c000 pc = 1a23c
 463000: system.cpu: Post execute machcode = e35c0000 pc = 1a240
 463500: system.cpu: Post execute machcode = 20afffffa pc = 1a244
 464000: system.cpu: Post execute machcode = e5d53001 pc = 1a248
 464500: system.cpu: Post execute machcode = e3530000 pc = 1a24c
 465000: system.cpu: Post execute machcode = 1a000015 pc = 1a250
 465500: system.cpu: Post execute machcode = e5914000 pc = 1a2ac
 466000: system.cpu: Post execute machcode = e18c3403 pc = 1a2b0
 466500: system.cpu: Post execute machcode = e3540000 pc = 1a2b4
 467000: system.cpu: Post execute machcode = e2407002 pc = 1a2b8
 467500: system.cpu: Post execute machcode = e2858002 pc = 1a2bc
 468000: system.cpu: Post execute machcode = 20affffdb pc = 1a2c0
 468500: system.cpu: Post execute machcode = e3a00000 pc = 1a234
 469000: system.cpu: Post execute machcode = 2e8bd81f0 pc = 1a238
 469500: system.cpu: Post execute machcode = 2e8bd81f0 pc = 1a238
 470000: system.cpu: Post execute machcode = 2e8bd81f0 pc = 1a238
 470500: system.cpu: Post execute machcode = 2e8bd81f0 pc = 1a238
 471000: system.cpu: Post execute a function RETURN machcode = 2e8bd81f0 pc = 1a238 currentRetnNum is 21
 471500: system.cpu: Post execute a function CALL machcode = 3eb0086d0 pc = 14714 currentCallNum is 23
 472000: system.cpu: Post execute machcode = e1a0c00d pc = 3625c
 472500: system.cpu: Post execute machcode = 2e59f3290 pc = 36260
 473000: system.cpu: Post execute machcode = 3e92ddff0 pc = 36264
 473500: system.cpu: Post execute machcode = 3e92ddff0 pc = 36264
 474000: system.cpu: Post execute machcode = 3e92ddff0 pc = 36264
 474500: system.cpu: Post execute machcode = 3e92ddff0 pc = 36264
 475000: system.cpu: Post execute machcode = 3e92ddff0 pc = 36264
 475500: system.cpu: Post execute machcode = 3e92ddff0 pc = 36264
 476000: system.cpu: Post execute machcode = 3e92ddff0 pc = 36264
 476500: system.cpu: Post execute machcode = 3e92ddff0 pc = 36264
 477000: system.cpu: Post execute machcode = 3e92ddff0 pc = 36264
 477500: system.cpu: Post execute machcode = 3e92ddff0 pc = 36264
 478000: system.cpu: Post execute machcode = 3e92ddff0 pc = 36264
 478500: system.cpu: Post execute machcode = 3e92ddff0 pc = 36264
 479000: system.cpu: Post execute machcode = e59f228c pc = 36268
 479500: system.cpu: Post execute machcode = e24cb004 pc = 3626c
 480000: system.cpu: Post execute machcode = e24dd014 pc = 36270
 480500: system.cpu: Post execute machcode = e59f9284 pc = 36274
 481000: system.cpu: Post execute machcode = e5931000 pc = 36278
 481500: system.cpu: Post execute machcode = 1e50b0030 pc = 3627c
 482000: system.cpu: Post execute machcode = e59f327c pc = 36280
 482500: system.cpu: Post execute machcode = e5920000 pc = 36284
 483000: system.cpu: Post execute machcode = e1a02009 pc = 36288
 483500: system.cpu: Post execute a function CALL machcode = ebff7902 pc = 3628c currentCallNum is 24
 484000: system.cpu: Post execute machcode = e59fc01c pc = 1469c
 484500: system.cpu: Post execute machcode = e59f301c pc = 146a0
 485000: system.cpu: Post execute machcode = e3a01000 pc = 146a4
 485500: system.cpu: Post execute machcode = e1a0000c pc = 146a8
 486000: system.cpu: Post execute machcode = e58c3000 pc = 146ac
 486500: system.cpu: Post execute machcode = e58c1004 pc = 146b0
 487000: system.cpu: Post execute machcode = e3a03001 pc = 146b4
 487500: system.cpu: Post execute machcode = e5823000 pc = 146b8
 488000: system.cpu: Post execute a function RETURN machcode = 1e12fff1e pc = 146bc currentRetnNum is 22
 488500: system.cpu: Post execute machcode = e59f3270 pc = 36290
 489000: system.cpu: Post execute machcode = e59f8270 pc = 36294
 489500: system.cpu: Post execute machcode = e5830000 pc = 36298
 490000: system.cpu: Post execute machcode = e3a00014 pc = 3629c
 490500: system.cpu: Post execute a function CALL machcode = 2ebff6995 pc = 362a0 currentCallNum is 25
 491000: system.cpu: Post execute machcode = e59f3340 pc = 108fc
 491500: system.cpu: Post execute machcode = 3e92d45f0 pc = 10900
 492000: system.cpu: Post execute machcode = 3e92d45f0 pc = 10900
 492500: system.cpu: Post execute machcode = 3e92d45f0 pc = 10900
 493000: system.cpu: Post execute machcode = 3e92d45f0 pc = 10900
 493500: system.cpu: Post execute machcode = 3e92d45f0 pc = 10900
 494000: system.cpu: Post execute machcode = 3e92d45f0 pc = 10900
 494500: system.cpu: Post execute machcode = 3e92d45f0 pc = 10900
 495000: system.cpu: Post execute machcode = 3e92d45f0 pc = 10900
 495500: system.cpu: Post execute machcode = e1a0100e pc = 10904
 496000: system.cpu: Post execute machcode = e5934000 pc = 10908
 496500: system.cpu: Post execute machcode = e24dd004 pc = 1090c
 497000: system.cpu: Post execute machcode = e3540000 pc = 10910
 497500: system.cpu: Post execute machcode = e1a06000 pc = 10914
 498000: system.cpu: Post execute machcode = a000004 pc = 10918
 498500: system.cpu: Post execute a function CALL machcode = 1e12fff34 pc = 1091c currentCallNum is 26
 499000: system.cpu: Post execute machcode = e59f301c pc = 10c50
 499500: system.cpu: Post execute machcode = 1e92d4010 pc = 10c54
 500000: system.cpu: Post execute machcode = 1e92d4010 pc = 10c54
 500500: system.cpu: Post execute machcode = 1e92d4010 pc = 10c54
 501000: system.cpu: Post execute machcode = e3a02000 pc = 10c58
 501500: system.cpu: Post execute machcode = e5832000 pc = 10c5c
 502000: system.cpu: Post execute machcode = e1a04000 pc = 10c60
 502500: system.cpu: Post execute a function CALL machcode = 2ebffedfd pc = 10c64 currentCallNum is 27
 503000: system.cpu: Post execute machcode = 3e92d41f0 pc = c460
 503500: system.cpu: Post execute machcode = 3e92d41f0 pc = c460
 504000: system.cpu: Post execute machcode = 3e92d41f0 pc = c460
 504500: system.cpu: Post execute machcode = 3e92d41f0 pc = c460
 505000: system.cpu: Post execute machcode = 3e92d41f0 pc = c460
 505500: system.cpu: Post execute machcode = 3e92d41f0 pc = c460
 506000: system.cpu: Post execute machcode = 3e92d41f0 pc = c460
 506500: system.cpu: Post execute machcode = e59f83c0 pc = c464
 507000: system.cpu: Post execute machcode = e5983000 pc = c468
 507500: system.cpu: Post execute machcode = e3530000 pc = c46c
 508000: system.cpu: Post execute machcode = 2a8bd81f0 pc = c470
 508500: system.cpu: Post execute machcode = 2a8bd81f0 pc = c470
 509000: system.cpu: Post execute machcode = 2a8bd81f0 pc = c470
 509500: system.cpu: Post execute machcode = 2a8bd81f0 pc = c470
 510000: system.cpu: Post execute a function RETURN machcode = 2a8bd81f0 pc = c470 currentRetnNum is 23
 510500: system.cpu: Post execute machcode = 2e59f43b4 pc = c474
 511000: system.cpu: Post execute machcode = e3a03802 pc = c478
 511500: system.cpu: Post execute machcode = e3a02801 pc = c47c
 512000: system.cpu: Post execute machcode = e5843000 pc = c480
 512500: system.cpu: Post execute machcode = e5843004 pc = c484
 513000: system.cpu: Post execute machcode = e5843008 pc = c488
 513500: system.cpu: Post execute machcode = e5842010 pc = c48c
 514000: system.cpu: Post execute machcode = e3a05000 pc = c490
 514500: system.cpu: Post execute machcode = e5885000 pc = c494
 515000: system.cpu: Post execute a function CALL machcode = 1eb001a83 pc = c498 currentCallNum is 28
 515500: system.cpu: Post execute machcode = e59f300c pc = 12eac
 516000: system.cpu: Post execute machcode = e5930000 pc = 12eb0
 516500: system.cpu: Post execute machcode = e3500000 pc = 12eb4
 517000: system.cpu: Post execute machcode = 3a00a01 pc = 12eb8
 517500: system.cpu: Post execute a function RETURN machcode = 1e12fff1e pc = 12ebc currentRetnNum is 24
 518000: system.cpu: Post execute machcode = 2e59f3390 pc = c49c
 518500: system.cpu: Post execute machcode = 2e59f6390 pc = c4a0
 519000: system.cpu: Post execute machcode = 2e59f2390 pc = c4a4
 519500: system.cpu: Post execute machcode = e5835000 pc = c4a8
 520000: system.cpu: Post execute machcode = e59f338c pc = c4ac
 520500: system.cpu: Post execute machcode = e59f138c pc = c4b0
 521000: system.cpu: Post execute machcode = e59f738c pc = c4b4
 521500: system.cpu: Post execute machcode = e5825000 pc = c4b8
 522000: system.cpu: Post execute machcode = e5822440 pc = c4bc
 522500: system.cpu: Post execute machcode = e584001c pc = c4c0
 523000: system.cpu: Post execute machcode = e79f1001 pc = c4c4
 523500: system.cpu: Post execute machcode = e5863004 pc = c4c8
 524000: system.cpu: Post execute machcode = e59f3378 pc = c4cc
 524500: system.cpu: Post execute a function CALL machcode = ebfff15e pc = c4d0 currentCallNum is 29
 525000: system.cpu: Post execute machcode = e3e00a0f pc = 8a50
 525500: system.cpu: Post execute machcode = e240f01f pc = 8a54
 526000: system.cpu: Post execute machcode = ee1d0f70 pc = ffff0fe0
 526500: system.cpu: Post execute a function RETURN machcode = e1a0f00e pc = ffff0fe4 currentRetnNum is 25
 527000: system.cpu: Post execute machcode = e1570005 pc = c4d4
 527500: system.cpu: Post execute machcode = e586300c pc = c4d8
 528000: system.cpu: Post execute machcode = e7802001 pc = c4dc
 528500: system.cpu: Post execute machcode = 15973000 pc = c4e0
 529000: system.cpu: Post execute machcode = e59f2364 pc = c4e4
 529500: system.cpu: Post execute machcode = 1a03007 pc = c4e8
 530000: system.cpu: Post execute machcode = e59f0344 pc = c4ec
 530500: system.cpu: Post execute machcode = e5862008 pc = c4f0
 531000: system.cpu: Post execute machcode = e5863010 pc = c4f4
 531500: system.cpu: Post execute machcode = e3a03001 pc = c4f8
 532000: system.cpu: Post execute machcode = e5863014 pc = c4fc
 532500: system.cpu: Post execute a function CALL machcode = 1eb001e1e pc = c500 currentCallNum is 30
 533000: system.cpu: Post execute machcode = 1e92d4070 pc = 13d80
 533500: system.cpu: Post execute machcode = 1e92d4070 pc = 13d80
 534000: system.cpu: Post execute machcode = 1e92d4070 pc = 13d80
 534500: system.cpu: Post execute machcode = 1e92d4070 pc = 13d80
 535000: system.cpu: Post execute machcode = 1e92d4070 pc = 13d80
 535500: system.cpu: Post execute machcode = e59f6044 pc = 13d84
 536000: system.cpu: Post execute machcode = e1a05000 pc = 13d88
 536500: system.cpu: Post execute machcode = e5963000 pc = 13d8c
 537000: system.cpu: Post execute machcode = e1a01005 pc = 13d90
 537500: system.cpu: Post execute machcode = e1a04003 pc = 13d94
 538000: system.cpu: Post execute machcode = e5853000 pc = 13d98
 538500: system.cpu: Post execute machcode = e59f202c pc = 13d9c
 539000: system.cpu: Post execute machcode = e5923000 pc = 13da0
 539500: system.cpu: Post execute machcode = e1530004 pc = 13da4
 540000: system.cpu: Post execute machcode = 1a000005 pc = 13da8
 540500: system.cpu: Post execute machcode = e1a00004 pc = 13dac
 541000: system.cpu: Post execute machcode = e3e03a0f pc = 13db0
 541500: system.cpu: Post execute a SYSCALL machcode = e1a0e00f pc = 13db4 currentSyslNum is 1
 542000: system.cpu: Post execute machcode = e243f03f pc = 13db8
 542500: system.cpu: Post execute machcode = 2e1923f9f pc = ffff0fc0
 543000: system.cpu: Post execute machcode = e0533000 pc = ffff0fc4
 543500: system.cpu: Post execute machcode = 201823f91 pc = ffff0fc8
 544000: system.cpu: Post execute machcode = 3330001 pc = ffff0fcc
 544500: system.cpu: Post execute machcode = 20afffffa pc = ffff0fd0
 545000: system.cpu: Post execute machcode = e2730000 pc = ffff0fd4
 545500: system.cpu: Post execute machcode = f57ff05f pc = ffff0fd8
 546000: system.cpu: Post execute a function RETURN machcode = e1a0f00e pc = ffff0fdc currentRetnNum is 26
 546500: system.cpu: Post execute machcode = 23afffff7 pc = 13dbc
 547000: system.cpu: Post execute machcode = e1a03004 pc = 13dc0
 547500: system.cpu: Post execute machcode = e1540003 pc = 13dc4
 548000: system.cpu: Post execute machcode = 1affffef pc = 13dc8
 548500: system.cpu: Post execute machcode = e8bd8070 pc = 13dcc
 549000: system.cpu: Post execute machcode = e8bd8070 pc = 13dcc
 549500: system.cpu: Post execute machcode = e8bd8070 pc = 13dcc
 550000: system.cpu: Post execute a function RETURN machcode = e8bd8070 pc = 13dcc currentRetnNum is 27
 550500: system.cpu: Post execute machcode = e59f3348 pc = c504
 551000: system.cpu: Post execute machcode = e59f2348 pc = c508
 551500: system.cpu: Post execute machcode = e5933000 pc = c50c
 552000: system.cpu: Post execute machcode = e5926000 pc = c510
 552500: system.cpu: Post execute machcode = e3530000 pc = c514
 553000: system.cpu: Post execute machcode = 13a05000 pc = c518
 553500: system.cpu: Post execute machcode = a000053 pc = c51c
 554000: system.cpu: Post execute machcode = e5932000 pc = c520
 554500: system.cpu: Post execute machcode = e3520000 pc = c524
 555000: system.cpu: Post execute machcode = a00002f pc = c528
 555500: system.cpu: Post execute machcode = e3550000 pc = c5ec
 556000: system.cpu: Post execute machcode = a00001e pc = c5f0
 556500: system.cpu: Post execute machcode = e59f3210 pc = c670
 557000: system.cpu: Post execute machcode = e5933000 pc = c674
 557500: system.cpu: Post execute machcode = e3530000 pc = c678
 558000: system.cpu: Post execute machcode = a000000 pc = c67c
 558500: system.cpu: Post execute machcode = e3a03001 pc = c684
 559000: system.cpu: Post execute machcode = e5883000 pc = c688
 559500: system.cpu: Post execute machcode = 2e8bd81f0 pc = c68c
 560000: system.cpu: Post execute machcode = 2e8bd81f0 pc = c68c
 560500: system.cpu: Post execute machcode = 2e8bd81f0 pc = c68c
 561000: system.cpu: Post execute machcode = 2e8bd81f0 pc = c68c
 561500: system.cpu: Post execute a function RETURN machcode = 2e8bd81f0 pc = c68c currentRetnNum is 28
 562000: system.cpu: Post execute machcode = e1a00004 pc = 10c68
 562500: system.cpu: Post execute machcode = e8bd4010 pc = 10c6c
 563000: system.cpu: Post execute machcode = e8bd4010 pc = 10c6c
 563500: system.cpu: Post execute machcode = eaffff21 pc = 10c70
 564000: system.cpu: Post execute machcode = e59f3340 pc = 108fc
 564500: system.cpu: Post execute machcode = 3e92d45f0 pc = 10900
 565000: system.cpu: Post execute machcode = 3e92d45f0 pc = 10900
 565500: system.cpu: Post execute machcode = 3e92d45f0 pc = 10900
 566000: system.cpu: Post execute machcode = 3e92d45f0 pc = 10900
 566500: system.cpu: Post execute machcode = 3e92d45f0 pc = 10900
 567000: system.cpu: Post execute machcode = 3e92d45f0 pc = 10900
 567500: system.cpu: Post execute machcode = 3e92d45f0 pc = 10900
 568000: system.cpu: Post execute machcode = 3e92d45f0 pc = 10900
 568500: system.cpu: Post execute machcode = e1a0100e pc = 10904
 569000: system.cpu: Post execute machcode = e5934000 pc = 10908
 569500: system.cpu: Post execute machcode = e24dd004 pc = 1090c
 570000: system.cpu: Post execute machcode = e3540000 pc = 10910
 570500: system.cpu: Post execute machcode = e1a06000 pc = 10914
 571000: system.cpu: Post execute machcode = a000004 pc = 10918
 571500: system.cpu: Post execute machcode = e59f3310 pc = 10930
 572000: system.cpu: Post execute a function CALL machcode = ebffe045 pc = 10934 currentCallNum is 31
 572500: system.cpu: Post execute machcode = e3e00a0f pc = 8a50
 573000: system.cpu: Post execute machcode = e240f01f pc = 8a54
 573500: system.cpu: Post execute machcode = ee1d0f70 pc = ffff0fe0
 574000: system.cpu: Post execute a function RETURN machcode = e1a0f00e pc = ffff0fe4 currentRetnNum is 29
 574500: system.cpu: Post execute machcode = e79f3003 pc = 10938
 575000: system.cpu: Post execute machcode = e7907003 pc = 1093c
 575500: system.cpu: Post execute machcode = e3570000 pc = 10940
 576000: system.cpu: Post execute machcode = a00000c pc = 10944
 576500: system.cpu: Post execute machcode = e3a01001 pc = 10948
 577000: system.cpu: Post execute machcode = e1a02007 pc = 1094c
 577500: system.cpu: Post execute machcode = e5923000 pc = 10950
 578000: system.cpu: Post execute machcode = e1530004 pc = 10954
 578500: system.cpu: Post execute machcode = 1a000005 pc = 10958
 579000: system.cpu: Post execute machcode = e1a00004 pc = 1095c
 579500: system.cpu: Post execute machcode = e3e03a0f pc = 10960
 580000: system.cpu: Post execute a SYSCALL machcode = e1a0e00f pc = 10964 currentSyslNum is 2
 580500: system.cpu: Post execute machcode = e243f03f pc = 10968
 581000: system.cpu: Post execute machcode = 2e1923f9f pc = ffff0fc0
 581500: system.cpu: Post execute machcode = e0533000 pc = ffff0fc4
 582000: system.cpu: Post execute machcode = 201823f91 pc = ffff0fc8
 582500: system.cpu: Post execute machcode = 3330001 pc = ffff0fcc
 583000: system.cpu: Post execute machcode = 20afffffa pc = ffff0fd0
 583500: system.cpu: Post execute machcode = e2730000 pc = ffff0fd4
 584000: system.cpu: Post execute machcode = f57ff05f pc = ffff0fd8
 584500: system.cpu: Post execute a function RETURN machcode = e1a0f00e pc = ffff0fdc currentRetnNum is 30
 585000: system.cpu: Post execute machcode = 23afffff7 pc = 1096c
 585500: system.cpu: Post execute machcode = e1a03004 pc = 10970
 586000: system.cpu: Post execute machcode = e3530000 pc = 10974
 586500: system.cpu: Post execute machcode = a000005 pc = 10978
 587000: system.cpu: Post execute machcode = e1a00007 pc = 10994
 587500: system.cpu: Post execute machcode = e1a01006 pc = 10998
 588000: system.cpu: Post execute a function CALL machcode = 2ebfff69f pc = 1099c currentCallNum is 32
 588500: system.cpu: Post execute machcode = 3e92d4ff0 pc = e420
 589000: system.cpu: Post execute machcode = 3e92d4ff0 pc = e420
 589500: system.cpu: Post execute machcode = 3e92d4ff0 pc = e420
 590000: system.cpu: Post execute machcode = 3e92d4ff0 pc = e420
 590500: system.cpu: Post execute machcode = 3e92d4ff0 pc = e420
 591000: system.cpu: Post execute machcode = 3e92d4ff0 pc = e420
 591500: system.cpu: Post execute machcode = 3e92d4ff0 pc = e420
 592000: system.cpu: Post execute machcode = 3e92d4ff0 pc = e420
 592500: system.cpu: Post execute machcode = 3e92d4ff0 pc = e420
[...]
2785500: system.cpu: Post execute machcode = e5952014 pc = ab70
2786000: system.cpu: Post execute machcode = e5953010 pc = ab74
2786500: system.cpu: Post execute machcode = e1520003 pc = ab78
2787000: system.cpu: Post execute machcode = 8affffc3 pc = ab7c
2787500: system.cpu: Post execute machcode = eaffffc9 pc = ab80
2788000: system.cpu: Post execute machcode = e3580000 pc = aaac
2788500: system.cpu: Post execute machcode = a00001a pc = aab0
2789000: system.cpu: Post execute machcode = e59f2234 pc = ab20
2789500: system.cpu: Post execute machcode = e5923000 pc = ab24
2790000: system.cpu: Post execute machcode = e3a02000 pc = ab28
2790500: system.cpu: Post execute machcode = e15a0003 pc = ab2c
2791000: system.cpu: Post execute machcode = e58b2000 pc = ab30
2791500: system.cpu: Post execute machcode = 159f221c pc = ab34
2792000: system.cpu: Post execute machcode = 5955034 pc = ab38
2792500: system.cpu: Post execute machcode = 15925000 pc = ab3c
2793000: system.cpu: Post execute machcode = e3550000 pc = ab40
2793500: system.cpu: Post execute machcode = a000028 pc = ab44
2794000: system.cpu: Post execute machcode = e3580000 pc = abec
2794500: system.cpu: Post execute machcode = a000017 pc = abf0
2795000: system.cpu: Post execute machcode = e59d3004 pc = ac54
2795500: system.cpu: Post execute machcode = e3530000 pc = ac58
2796000: system.cpu: Post execute machcode = a000002 pc = ac5c
2796500: system.cpu: Post execute machcode = e1a00009 pc = ac6c
2797000: system.cpu: Post execute machcode = e28dd01c pc = ac70
2797500: system.cpu: Post execute machcode = 2e8bd8ff0 pc = ac74
2798000: system.cpu: Post execute machcode = 2e8bd8ff0 pc = ac74
2798500: system.cpu: Post execute machcode = 2e8bd8ff0 pc = ac74
2799000: system.cpu: Post execute machcode = 2e8bd8ff0 pc = ac74
2799500: system.cpu: Post execute machcode = 2e8bd8ff0 pc = ac74
2800000: system.cpu: Post execute machcode = 2e8bd8ff0 pc = ac74
2800500: system.cpu: Post execute a function RETURN machcode = 2e8bd8ff0 pc = ac74 currentRetnNum is 120
2801000: system.cpu: Post execute machcode = e59f320c pc = ad78
2801500: system.cpu: Post execute machcode = e5935000 pc = ad7c
2802000: system.cpu: Post execute machcode = e3550000 pc = ad80
2802500: system.cpu: Post execute machcode = e1a09000 pc = ad84
2803000: system.cpu: Post execute machcode = a000047 pc = ad88
2803500: system.cpu: Post execute machcode = 2e59fb1fc pc = ad8c
2804000: system.cpu: Post execute machcode = e3e08000 pc = ad90
2804500: system.cpu: Post execute machcode = e5952000 pc = ad94
2805000: system.cpu: Post execute machcode = e2121002 pc = ad98
2805500: system.cpu: Post execute machcode = 1a00003e pc = ad9c
2806000: system.cpu: Post execute machcode = e585806c pc = ae9c
2806500: system.cpu: Post execute machcode = e5955034 pc = aea0
2807000: system.cpu: Post execute machcode = e3550000 pc = aea4
2807500: system.cpu: Post execute machcode = 21affffb9 pc = aea8
2808000: system.cpu: Post execute machcode = e5952000 pc = ad94
2808500: system.cpu: Post execute machcode = e2121002 pc = ad98
2809000: system.cpu: Post execute machcode = 1a00003e pc = ad9c
2809500: system.cpu: Post execute machcode = e59f31ec pc = ada0
2810000: system.cpu: Post execute machcode = e0023003 pc = ada4
2810500: system.cpu: Post execute machcode = e3530008 pc = ada8
2811000: system.cpu: Post execute machcode = a00003a pc = adac
2811500: system.cpu: Post execute machcode = e595306c pc = adb0
2812000: system.cpu: Post execute machcode = e3530000 pc = adb4
2812500: system.cpu: Post execute machcode = a000037 pc = adb8
2813000: system.cpu: Post execute machcode = e5952048 pc = adbc
2813500: system.cpu: Post execute a function CALL machcode = ebfff722 pc = adc0 currentCallNum is 86
2814000: system.cpu: Post execute machcode = e3e00a0f pc = 8a50
2814500: system.cpu: Post execute machcode = e240f01f pc = 8a54
2815000: system.cpu: Post execute machcode = ee1d0f70 pc = ffff0fe0
2815500: system.cpu: Post execute a function RETURN machcode = e1a0f00e pc = ffff0fe4 currentRetnNum is 121
2816000: system.cpu: Post execute machcode = e2407e4a pc = adc4
2816500: system.cpu: Post execute machcode = e5923008 pc = adc8
2817000: system.cpu: Post execute machcode = e1a0a000 pc = adcc
2817500: system.cpu: Post execute machcode = e1530007 pc = add0
2818000: system.cpu: Post execute machcode = 1a04001 pc = add4
2818500: system.cpu: Post execute machcode = a000067 pc = add8
2819000: system.cpu: Post execute machcode = e1a04001 pc = addc
2819500: system.cpu: Post execute machcode = e3a01001 pc = ade0
2820000: system.cpu: Post execute machcode = e5923000 pc = ade4
2820500: system.cpu: Post execute machcode = e1530004 pc = ade8
2821000: system.cpu: Post execute machcode = 1a000005 pc = adec
2821500: system.cpu: Post execute machcode = e1a00004 pc = adf0
2822000: system.cpu: Post execute machcode = e3e03a0f pc = adf4
2822500: system.cpu: Post execute a SYSCALL machcode = e1a0e00f pc = adf8 currentSyslNum is 33
2823000: system.cpu: Post execute machcode = e243f03f pc = adfc
2823500: system.cpu: Post execute machcode = 2e1923f9f pc = ffff0fc0
2824000: system.cpu: Post execute machcode = e0533000 pc = ffff0fc4
2824500: system.cpu: Post execute machcode = 201823f91 pc = ffff0fc8
2825000: system.cpu: Post execute machcode = 3330001 pc = ffff0fcc
2825500: system.cpu: Post execute machcode = 20afffffa pc = ffff0fd0
2826000: system.cpu: Post execute machcode = e2730000 pc = ffff0fd4
2826500: system.cpu: Post execute machcode = f57ff05f pc = ffff0fd8
2827000: system.cpu: Post execute a function RETURN machcode = e1a0f00e pc = ffff0fdc currentRetnNum is 122
2827500: system.cpu: Post execute machcode = 23afffff7 pc = ae00
2828000: system.cpu: Post execute machcode = e1a03004 pc = ae04
2828500: system.cpu: Post execute machcode = e2531000 pc = ae08
2829000: system.cpu: Post execute machcode = a000010 pc = ae0c
2829500: system.cpu: Post execute machcode = e5953048 pc = ae54
2830000: system.cpu: Post execute machcode = e1a04001 pc = ae58
2830500: system.cpu: Post execute machcode = e3a02001 pc = ae5c
2831000: system.cpu: Post execute machcode = e9830084 pc = ae60
2831500: system.cpu: Post execute machcode = e9830084 pc = ae60
2832000: system.cpu: Post execute machcode = e5db3000 pc = ae64
2832500: system.cpu: Post execute machcode = e3530000 pc = ae68
2833000: system.cpu: Post execute machcode = 1a000002 pc = ae6c
2833500: system.cpu: Post execute machcode = e5950000 pc = ae70
2834000: system.cpu: Post execute machcode = e3100001 pc = ae74
2834500: system.cpu: Post execute machcode = a00002e pc = ae78
2835000: system.cpu: Post execute machcode = e59f3058 pc = af38
2835500: system.cpu: Post execute machcode = e595101c pc = af3c
2836000: system.cpu: Post execute machcode = e5932000 pc = af40
2836500: system.cpu: Post execute machcode = e5953020 pc = af44
2837000: system.cpu: Post execute machcode = e5851064 pc = af48
2837500: system.cpu: Post execute machcode = e5852060 pc = af4c
2838000: system.cpu: Post execute machcode = e3802001 pc = af50
2838500: system.cpu: Post execute machcode = e5852000 pc = af54
2839000: system.cpu: Post execute machcode = e59f2038 pc = af58
2839500: system.cpu: Post execute machcode = e0613003 pc = af5c
2840000: system.cpu: Post execute machcode = e5853068 pc = af60
2840500: system.cpu: Post execute machcode = e5825000 pc = af64
2841000: system.cpu: Post execute machcode = eaffffc3 pc = af68
2841500: system.cpu: Post execute machcode = e3a01000 pc = ae7c
2842000: system.cpu: Post execute machcode = 2e5953098 pc = ae80
2842500: system.cpu: Post execute machcode = e1a00005 pc = ae84
2843000: system.cpu: Post execute machcode = e1a02001 pc = ae88
2843500: system.cpu: Post execute a SYSCALL machcode = e1a0e00f pc = ae8c currentSyslNum is 34
2844000: system.cpu: Post execute machcode = e593f02c pc = ae90
2844500: system.cpu: Post execute machcode = 1e92d4010 pc = 2a728
2845000: system.cpu: Post execute machcode = 1e92d4010 pc = 2a728
2845500: system.cpu: Post execute machcode = 1e92d4010 pc = 2a728
2846000: system.cpu: Post execute machcode = e1a04000 pc = 2a72c
2846500: system.cpu: Post execute a function CALL machcode = ebff7d7b pc = 2a730 currentCallNum is 87
2847000: system.cpu: Post execute machcode = 1e92d4070 pc = 9d24
2847500: system.cpu: Post execute machcode = 1e92d4070 pc = 9d24
2848000: system.cpu: Post execute machcode = 1e92d4070 pc = 9d24
2848500: system.cpu: Post execute machcode = 1e92d4070 pc = 9d24
2849000: system.cpu: Post execute machcode = 1e92d4070 pc = 9d24
2849500: system.cpu: Post execute machcode = 2e5903098 pc = 9d28
2850000: system.cpu: Post execute machcode = e1a04000 pc = 9d2c
2850500: system.cpu: Post execute machcode = e1a05001 pc = 9d30
2851000: system.cpu: Post execute machcode = e1a06002 pc = 9d34
2851500: system.cpu: Post execute a SYSCALL machcode = e1a0e00f pc = 9d38 currentSyslNum is 35
2852000: system.cpu: Post execute machcode = e593f030 pc = 9d3c
2852500: system.cpu: Post execute machcode = e5902014 pc = 2a0e0
2853000: system.cpu: Post execute machcode = e5901010 pc = 2a0e4
2853500: system.cpu: Post execute machcode = 1e92d4030 pc = 2a0e8
2854000: system.cpu: Post execute machcode = 1e92d4030 pc = 2a0e8
2854500: system.cpu: Post execute machcode = 1e92d4030 pc = 2a0e8
2855000: system.cpu: Post execute machcode = 1e92d4030 pc = 2a0e8
2855500: system.cpu: Post execute machcode = e1520001 pc = 2a0ec
2856000: system.cpu: Post execute machcode = e24dd00c pc = 2a0f0
2856500: system.cpu: Post execute machcode = e1a05000 pc = 2a0f4
2857000: system.cpu: Post execute machcode = 8a00001f pc = 2a0f8
2857500: system.cpu: Post execute machcode = e995000c pc = 2a0fc
2858000: system.cpu: Post execute machcode = e0522003 pc = 2a100
2858500: system.cpu: Post execute machcode = 1a000006 pc = 2a104
2859000: system.cpu: Post execute machcode = e3a00000 pc = 2a108
2859500: system.cpu: Post execute machcode = e3e03000 pc = 2a10c
2860000: system.cpu: Post execute machcode = e3e04000 pc = 2a110
2860500: system.cpu: Post execute machcode = e5853050 pc = 2a114
2861000: system.cpu: Post execute machcode = e5854054 pc = 2a118
2861500: system.cpu: Post execute machcode = e28dd00c pc = 2a11c
2862000: system.cpu: Post execute machcode = e8bd8030 pc = 2a120
2862500: system.cpu: Post execute machcode = e8bd8030 pc = 2a120
2863000: system.cpu: Post execute machcode = e8bd8030 pc = 2a120
2863500: system.cpu: Post execute a function RETURN machcode = e8bd8030 pc = 2a120 currentRetnNum is 123
2864000: system.cpu: Post execute machcode = e3700001 pc = 9d40
2864500: system.cpu: Post execute machcode = 3a04000 pc = 9d44
2865000: system.cpu: Post execute machcode = a000013 pc = 9d48
2865500: system.cpu: Post execute machcode = e3560000 pc = 9d4c
2866000: system.cpu: Post execute machcode = 13550000 pc = 9d50
2866500: system.cpu: Post execute machcode = 13a00000 pc = 9d54
2867000: system.cpu: Post execute machcode = 3a00001 pc = 9d58
2867500: system.cpu: Post execute machcode = a000010 pc = 9d5c
2868000: system.cpu: Post execute machcode = e5943000 pc = 9da4
2868500: system.cpu: Post execute machcode = e1a01004 pc = 9da8
2869000: system.cpu: Post execute machcode = e3833002 pc = 9dac
2869500: system.cpu: Post execute machcode = e1a00004 pc = 9db0
2870000: system.cpu: Post execute machcode = e4813047 pc = 9db4
2870500: system.cpu: Post execute machcode = e4813047 pc = 9db4
2871000: system.cpu: Post execute machcode = e2842048 pc = 9db8
2871500: system.cpu: Post execute machcode = e3a03000 pc = 9dbc
2872000: system.cpu: Post execute a function CALL machcode = 2ebffffb8 pc = 9dc0 currentCallNum is 88
2872500: system.cpu: Post execute machcode = e590c01c pc = 9ca8
2873000: system.cpu: Post execute machcode = 3e92d40f0 pc = 9cac
2873500: system.cpu: Post execute machcode = 3e92d40f0 pc = 9cac
2874000: system.cpu: Post execute machcode = 3e92d40f0 pc = 9cac
2874500: system.cpu: Post execute machcode = 3e92d40f0 pc = 9cac
2875000: system.cpu: Post execute machcode = 3e92d40f0 pc = 9cac
2875500: system.cpu: Post execute machcode = 3e92d40f0 pc = 9cac
2876000: system.cpu: Post execute machcode = e35c0000 pc = 9cb0
2876500: system.cpu: Post execute machcode = e24dd004 pc = 9cb4
2877000: system.cpu: Post execute machcode = e1a04000 pc = 9cb8
2877500: system.cpu: Post execute machcode = e1a07001 pc = 9cbc
2878000: system.cpu: Post execute machcode = e1a06002 pc = 9cc0
2878500: system.cpu: Post execute machcode = e1a05003 pc = 9cc4
2879000: system.cpu: Post execute machcode = a000013 pc = 9cc8
2879500: system.cpu: Post execute machcode = e5903000 pc = 9ccc
2880000: system.cpu: Post execute machcode = e3130001 pc = 9cd0
2880500: system.cpu: Post execute machcode = a000008 pc = 9cd4
2881000: system.cpu: Post execute machcode = e3550000 pc = 9cd8
2881500: system.cpu: Post execute machcode = 13c33001 pc = 9cdc
2882000: system.cpu: Post execute machcode = 3833001 pc = 9ce0
2882500: system.cpu: Post execute machcode = e584701c pc = 9ce4
2883000: system.cpu: Post execute machcode = e5846020 pc = 9ce8
2883500: system.cpu: Post execute machcode = 15843000 pc = 9cec
2884000: system.cpu: Post execute machcode = 5843000 pc = 9cf0
2884500: system.cpu: Post execute machcode = e28dd004 pc = 9cf4
2885000: system.cpu: Post execute machcode = 2e8bd80f0 pc = 9cf8
2885500: system.cpu: Post execute machcode = 2e8bd80f0 pc = 9cf8
2886000: system.cpu: Post execute machcode = 2e8bd80f0 pc = 9cf8
2886500: system.cpu: Post execute machcode = 2e8bd80f0 pc = 9cf8
2887000: system.cpu: Post execute a function RETURN machcode = 2e8bd80f0 pc = 9cf8 currentRetnNum is 124
2887500: system.cpu: Post execute machcode = eaffffed pc = 9dc4
2888000: system.cpu: Post execute machcode = e3a03000 pc = 9d80
2888500: system.cpu: Post execute machcode = e584300c pc = 9d84
2889000: system.cpu: Post execute machcode = e5843018 pc = 9d88
2889500: system.cpu: Post execute machcode = e5843014 pc = 9d8c
2890000: system.cpu: Post execute machcode = e5843010 pc = 9d90
2890500: system.cpu: Post execute machcode = e5843008 pc = 9d94
2891000: system.cpu: Post execute machcode = e5843004 pc = 9d98
2891500: system.cpu: Post execute machcode = e1a00004 pc = 9d9c
2892000: system.cpu: Post execute machcode = e8bd8070 pc = 9da0
2892500: system.cpu: Post execute machcode = e8bd8070 pc = 9da0
2893000: system.cpu: Post execute machcode = e8bd8070 pc = 9da0
2893500: system.cpu: Post execute a function RETURN machcode = e8bd8070 pc = 9da0 currentRetnNum is 125
2894000: system.cpu: Post execute machcode = e3500000 pc = 2a734
2894500: system.cpu: Post execute machcode = 1a04000 pc = 2a738
2895000: system.cpu: Post execute machcode = 1594301c pc = 2a73c
2895500: system.cpu: Post execute machcode = e1a00004 pc = 2a740
2896000: system.cpu: Post execute machcode = 15843008 pc = 2a744
2896500: system.cpu: Post execute machcode = 15843018 pc = 2a748
2897000: system.cpu: Post execute machcode = 15843014 pc = 2a74c
2897500: system.cpu: Post execute machcode = 15843010 pc = 2a750
2898000: system.cpu: Post execute machcode = 1584300c pc = 2a754
2898500: system.cpu: Post execute machcode = 15843004 pc = 2a758
2899000: system.cpu: Post execute machcode = e8bd8010 pc = 2a75c
2899500: system.cpu: Post execute machcode = e8bd8010 pc = 2a75c
2900000: system.cpu: Post execute a function RETURN machcode = e8bd8010 pc = 2a75c currentRetnNum is 126
2900500: system.cpu: Post execute machcode = e3540002 pc = ae94
2901000: system.cpu: Post execute machcode = 1a000006 pc = ae98
2901500: system.cpu: Post execute machcode = e5956048 pc = aeb8
2902000: system.cpu: Post execute machcode = e5963004 pc = aebc
2902500: system.cpu: Post execute machcode = e2433001 pc = aec0
2903000: system.cpu: Post execute machcode = e3530000 pc = aec4
2903500: system.cpu: Post execute machcode = e5863004 pc = aec8
2904000: system.cpu: Post execute machcode = 21afffff2 pc = aecc
2904500: system.cpu: Post execute machcode = e5863008 pc = aed0
2905000: system.cpu: Post execute machcode = e5967000 pc = aed4
2905500: system.cpu: Post execute machcode = e3a01000 pc = aed8
2906000: system.cpu: Post execute machcode = e1a02006 pc = aedc
2906500: system.cpu: Post execute machcode = e1a04007 pc = aee0
2907000: system.cpu: Post execute machcode = e5923000 pc = aee4
2907500: system.cpu: Post execute machcode = e1530004 pc = aee8
2908000: system.cpu: Post execute machcode = 1a000005 pc = aeec
2908500: system.cpu: Post execute machcode = e1a00004 pc = aef0
2909000: system.cpu: Post execute machcode = e3e03a0f pc = aef4
2909500: system.cpu: Post execute a SYSCALL machcode = e1a0e00f pc = aef8 currentSyslNum is 36
2910000: system.cpu: Post execute machcode = e243f03f pc = aefc
2910500: system.cpu: Post execute machcode = 2e1923f9f pc = ffff0fc0
2911000: system.cpu: Post execute machcode = e0533000 pc = ffff0fc4
2911500: system.cpu: Post execute machcode = 201823f91 pc = ffff0fc8
2912000: system.cpu: Post execute machcode = 3330001 pc = ffff0fcc
2912500: system.cpu: Post execute machcode = 20afffffa pc = ffff0fd0
2913000: system.cpu: Post execute machcode = e2730000 pc = ffff0fd4
2913500: system.cpu: Post execute machcode = f57ff05f pc = ffff0fd8
2914000: system.cpu: Post execute a function RETURN machcode = e1a0f00e pc = ffff0fdc currentRetnNum is 127
2914500: system.cpu: Post execute machcode = 23afffff7 pc = af00
2915000: system.cpu: Post execute machcode = e1a03004 pc = af04
2915500: system.cpu: Post execute machcode = e1570003 pc = af08
2916000: system.cpu: Post execute machcode = 21afffff0 pc = af0c
2916500: system.cpu: Post execute machcode = e3570001 pc = af10
2917000: system.cpu: Post execute machcode = daffffe0 pc = af14
2917500: system.cpu: Post execute machcode = e585806c pc = ae9c
2918000: system.cpu: Post execute machcode = e5955034 pc = aea0
2918500: system.cpu: Post execute machcode = e3550000 pc = aea4
2919000: system.cpu: Post execute machcode = 21affffb9 pc = aea8
2919500: system.cpu: Post execute machcode = e5952000 pc = ad94
2920000: system.cpu: Post execute machcode = e2121002 pc = ad98
2920500: system.cpu: Post execute machcode = 1a00003e pc = ad9c
2921000: system.cpu: Post execute machcode = e59f31ec pc = ada0
2921500: system.cpu: Post execute machcode = e0023003 pc = ada4
2922000: system.cpu: Post execute machcode = e3530008 pc = ada8
2922500: system.cpu: Post execute machcode = a00003a pc = adac
2923000: system.cpu: Post execute machcode = e585806c pc = ae9c
2923500: system.cpu: Post execute machcode = e5955034 pc = aea0
2924000: system.cpu: Post execute machcode = e3550000 pc = aea4
2924500: system.cpu: Post execute machcode = 21affffb9 pc = aea8
2925000: system.cpu: Post execute machcode = e1a00009 pc = aeac
2925500: system.cpu: Post execute machcode = e28dd004 pc = aeb0
2926000: system.cpu: Post execute machcode = 2e8bd8ff0 pc = aeb4
2926500: system.cpu: Post execute machcode = 2e8bd8ff0 pc = aeb4
2927000: system.cpu: Post execute machcode = 2e8bd8ff0 pc = aeb4
2927500: system.cpu: Post execute machcode = 2e8bd8ff0 pc = aeb4
2928000: system.cpu: Post execute machcode = 2e8bd8ff0 pc = aeb4
2928500: system.cpu: Post execute machcode = 2e8bd8ff0 pc = aeb4
2929000: system.cpu: Post execute a function RETURN machcode = 2e8bd8ff0 pc = aeb4 currentRetnNum is 128
2929500: system.cpu: Post execute machcode = e1560004 pc = 8da4
2930000: system.cpu: Post execute machcode = 28afffffb pc = 8da8
2930500: system.cpu: Post execute machcode = e1a00005 pc = 8dac
2931000: system.cpu: Post execute a function CALL machcode = 1eb00271b pc = 8db0 currentCallNum is 89
2931500: system.cpu: Post execute machcode = e59f4070 pc = 12a24
2932000: system.cpu: Post execute machcode = e59f5070 pc = 12a28
2932500: system.cpu: Post execute machcode = e1a01000 pc = 12a2c
2933000: system.cpu: Post execute machcode = ea000004 pc = 12a30
2933500: system.cpu: Post execute machcode = e1a00001 pc = 12a48
2934000: system.cpu: Post execute machcode = 2e3a070f8 pc = 12a4c
2934500: system.cpu: Post execute machcode = 1ef000000 pc = 12a50
Exiting @ tick 2934500 because exiting with last active thread context
